@<TRIPOS>MOLECULE
*****
 55 59 0 0 0
SMALL
GASTEIGER

@<TRIPOS>ATOM
      1 C          -6.6377   -2.2995   -3.2827 C.3     1  UNL1       -0.0036
      2 C          -5.9773   -2.3578   -1.9668 C.ar    1  UNL1        0.1361
      3 C          -5.5812   -3.3660   -1.1210 C.ar    1  UNL1        0.0221
      4 C          -4.9156   -2.7040   -0.0565 C.ar    1  UNL1        0.1679
      5 N          -4.2789   -3.3591    0.9880 N.am    1  UNL1       -0.2664
      6 C          -3.5425   -2.7177    1.9697 C.2     1  UNL1        0.2398
      7 O          -3.4237   -1.5022    2.1080 O.2     1  UNL1       -0.2736
      8 C          -2.9449   -3.6283    3.0084 C.3     1  UNL1        0.1472
      9 S          -1.7453   -4.6765    2.2613 S.O2    1  UNL1        0.0075
     10 O          -2.4359   -5.5080    1.2992 O.2     1  UNL1       -0.1688
     11 O          -0.5580   -3.9250    1.9256 O.2     1  UNL1       -0.1688
     12 C          -1.2243   -5.7221    3.5493 C.ar    1  UNL1        0.1166
     13 C          -0.5335   -5.2715    4.6619 C.ar    1  UNL1        0.0310
     14 N          -0.2257   -6.3511    5.4508 N.ar    1  UNL1       -0.3403
     15 C           0.4599   -6.2630    6.7430 C.3     1  UNL1        0.0484
     16 C           1.9553   -6.3789    6.5938 C.ar    1  UNL1       -0.0272
     17 C           2.7296   -5.2497    6.2999 C.ar    1  UNL1       -0.0568
     18 C           4.1038   -5.3687    6.0968 C.ar    1  UNL1       -0.0609
     19 C           4.7213   -6.6183    6.1841 C.ar    1  UNL1       -0.0539
     20 C           3.9775   -7.7630    6.4987 C.ar    1  UNL1       -0.0146
     21 C           4.6300   -9.0566    6.5909 C.ar    1  UNL1        0.0193
     22 C           5.9745   -9.3967    6.8838 C.ar    1  UNL1        0.0568
     23 N           6.1975  -10.7134    6.8531 N.ar    1  UNL1       -0.1817
     24 N           5.0000  -11.2254    6.5310 N.ar    1  UNL1       -0.2841
     25 C           4.0296  -10.2782    6.3669 C.ar    1  UNL1        0.0300
     26 C           2.5956   -7.6263    6.7117 C.ar    1  UNL1       -0.0491
     27 C          -0.7084   -7.5069    4.8648 C.ar    1  UNL1        0.0568
     28 C          -0.6209   -8.8483    5.2809 C.ar    1  UNL1       -0.0021
     29 C          -1.2022   -9.8296    4.4824 C.ar    1  UNL1        0.1281
     30 F          -1.1173  -11.1110    4.8635 F       1  UNL1       -0.2053
     31 C          -1.8696   -9.5127    3.3170 C.ar    1  UNL1        0.0096
     32 C          -1.9531   -8.1808    2.9139 C.ar    1  UNL1        0.1371
     33 F          -2.6359   -7.9288    1.7916 F       1  UNL1       -0.2046
     34 C          -1.3608   -7.1395    3.6705 C.ar    1  UNL1        0.0600
     35 N          -4.9808   -1.3806   -0.2229 N.ar    1  UNL1       -0.0628
     36 O          -5.6308   -1.1650   -1.4196 O.2     1  UNL1       -0.3581
     37 H          -5.9516   -1.8882   -4.0300 H       1  UNL1        0.0309
     38 H          -7.5254   -1.6608   -3.2460 H       1  UNL1        0.0309
     39 H          -6.9453   -3.2947   -3.6174 H       1  UNL1        0.0309
     40 H          -5.7176   -4.4261   -1.2733 H       1  UNL1        0.0687
     41 H          -4.2408   -4.3714    0.9091 H       1  UNL1        0.1564
     42 H          -2.4442   -3.0271    3.7753 H       1  UNL1        0.0601
     43 H          -3.7278   -4.2345    3.4656 H       1  UNL1        0.0601
     44 H          -0.2082   -4.2738    4.9317 H       1  UNL1        0.0829
     45 H           0.1864   -5.3037    7.1988 H       1  UNL1        0.0541
     46 H           0.0577   -7.0454    7.3986 H       1  UNL1        0.0541
     47 H           2.2698   -4.2680    6.2153 H       1  UNL1        0.0621
     48 H           4.6948   -4.4905    5.8520 H       1  UNL1        0.0618
     49 H           5.7881   -6.6847    5.9873 H       1  UNL1        0.0624
     50 H           6.7996   -8.7376    7.1217 H       1  UNL1        0.0854
     51 H           4.9179  -12.2324    6.4348 H       1  UNL1        0.1882
     52 H           3.0242  -10.5625    6.0914 H       1  UNL1        0.0830
     53 H           2.0111   -8.5016    6.9784 H       1  UNL1        0.0627
     54 H          -0.1130   -9.1408    6.1917 H       1  UNL1        0.0667
     55 H          -2.3266  -10.2900    2.7169 H       1  UNL1        0.0675
@<TRIPOS>BOND
     1     1     2    1
     2     1    37    1
     3     1    38    1
     4     1    39    1
     5     2    36   ar
     6     2     3   ar
     7     3     4   ar
     8     3    40    1
     9     4     5    1
    10     4    35   ar
    11     5     6   am
    12     5    41    1
    13     6     7    2
    14     6     8    1
    15     8     9    1
    16     8    42    1
    17     8    43    1
    18     9    10    2
    19     9    11    2
    20     9    12    1
    21    12    34   ar
    22    12    13   ar
    23    13    14   ar
    24    13    44    1
    25    14    15    1
    26    14    27   ar
    27    15    16    1
    28    15    45    1
    29    15    46    1
    30    16    26   ar
    31    16    17   ar
    32    17    18   ar
    33    17    47    1
    34    18    19   ar
    35    18    48    1
    36    19    20   ar
    37    19    49    1
    38    20    21    1
    39    20    26   ar
    40    21    25   ar
    41    21    22   ar
    42    22    23   ar
    43    22    50    1
    44    23    24   ar
    45    24    25   ar
    46    24    51    1
    47    25    52    1
    48    26    53    1
    49    27    34   ar
    50    27    28   ar
    51    28    29   ar
    52    28    54    1
    53    29    30    1
    54    29    31   ar
    55    31    32   ar
    56    31    55    1
    57    32    33    1
    58    32    34   ar
    59    35    36   ar
