@<TRIPOS>MOLECULE
*****
 55 59 0 0 0
SMALL
GASTEIGER

@<TRIPOS>ATOM
      1 C          -0.4296    5.8649   -4.4843 C.3     1  UNL1       -0.0036
      2 C          -1.1874    4.9254   -3.6365 C.ar    1  UNL1        0.1361
      3 C          -1.3487    4.7456   -2.2827 C.ar    1  UNL1        0.0221
      4 C          -2.3173    3.7127   -2.1651 C.ar    1  UNL1        0.1679
      5 N          -2.8523    3.2661   -0.9598 N.am    1  UNL1       -0.2664
      6 C          -3.8160    2.2756   -0.8715 C.2     1  UNL1        0.2398
      7 O          -4.3093    1.6685   -1.8214 O.2     1  UNL1       -0.2736
      8 C          -4.3763    2.0278    0.5022 C.3     1  UNL1        0.1472
      9 S          -3.1296    1.3948    1.5651 S.O2    1  UNL1        0.0075
     10 O          -2.5169    0.2230    0.9738 O.2     1  UNL1       -0.1688
     11 O          -2.3309    2.4994    2.0594 O.2     1  UNL1       -0.1688
     12 C          -3.9653    0.7742    2.9538 C.ar    1  UNL1        0.1166
     13 C          -4.0000   -0.5554    3.3301 C.ar    1  UNL1        0.0310
     14 N          -4.7154   -0.6610    4.4966 N.ar    1  UNL1       -0.3403
     15 C          -4.7829   -1.8783    5.3051 C.3     1  UNL1        0.0484
     16 C          -5.9750   -2.7387    4.9754 C.ar    1  UNL1       -0.0272
     17 C          -5.9175   -3.6793    3.9388 C.ar    1  UNL1       -0.0568
     18 C          -7.0177   -4.4911    3.6592 C.ar    1  UNL1       -0.0609
     19 C          -8.1872   -4.3767    4.4144 C.ar    1  UNL1       -0.0539
     20 C          -8.2677   -3.4515    5.4608 C.ar    1  UNL1       -0.0146
     21 C          -9.4560   -3.3461    6.2901 C.ar    1  UNL1        0.0193
     22 C          -9.5994   -3.0052    7.6534 C.ar    1  UNL1        0.0568
     23 N         -10.8702   -3.0046    8.0593 N.ar    1  UNL1       -0.1817
     24 N         -11.5498   -3.3488    6.9544 N.ar    1  UNL1       -0.2841
     25 C         -10.7503   -3.5634    5.8677 C.ar    1  UNL1        0.0300
     26 C          -7.1580   -2.6348    5.7267 C.ar    1  UNL1       -0.0491
     27 C          -5.1800    0.5877    4.8698 C.ar    1  UNL1        0.0568
     28 C          -5.9605    0.9917    5.9674 C.ar    1  UNL1       -0.0021
     29 C          -6.1998    2.3547    6.1385 C.ar    1  UNL1        0.1281
     30 F          -6.9147    2.7580    7.1951 F       1  UNL1       -0.2053
     31 C          -5.7132    3.2983    5.2519 C.ar    1  UNL1        0.0096
     32 C          -4.9817    2.8792    4.1431 C.ar    1  UNL1        0.1371
     33 F          -4.5506    3.8051    3.2723 F       1  UNL1       -0.2046
     34 C          -4.6909    1.5149    3.9318 C.ar    1  UNL1        0.0600
     35 N          -2.6561    3.2646   -3.3778 N.ar    1  UNL1       -0.0628
     36 O          -1.9567    4.0203   -4.2924 O.2     1  UNL1       -0.3581
     37 H           0.0164    5.3519   -5.3425 H       1  UNL1        0.0309
     38 H          -1.0966    6.6448   -4.8668 H       1  UNL1        0.0309
     39 H           0.3736    6.3505   -3.9227 H       1  UNL1        0.0309
     40 H          -0.8690    5.3110   -1.4989 H       1  UNL1        0.0687
     41 H          -2.4936    3.7128   -0.1230 H       1  UNL1        0.1564
     42 H          -4.7932    2.9488    0.9137 H       1  UNL1        0.0601
     43 H          -5.1643    1.2717    0.4267 H       1  UNL1        0.0601
     44 H          -3.5355   -1.4231    2.8759 H       1  UNL1        0.0829
     45 H          -3.8510   -2.4351    5.1464 H       1  UNL1        0.0541
     46 H          -4.7875   -1.5855    6.3617 H       1  UNL1        0.0541
     47 H          -5.0114   -3.7989    3.3478 H       1  UNL1        0.0621
     48 H          -6.9619   -5.2245    2.8579 H       1  UNL1        0.0618
     49 H          -9.0223   -5.0354    4.1883 H       1  UNL1        0.0624
     50 H          -8.8277   -2.7602    8.3772 H       1  UNL1        0.0854
     51 H         -12.5600   -3.4129    7.0128 H       1  UNL1        0.1882
     52 H         -11.1741   -3.8350    4.9116 H       1  UNL1        0.0830
     53 H          -7.2137   -1.9096    6.5347 H       1  UNL1        0.0627
     54 H          -6.3635    0.2868    6.6856 H       1  UNL1        0.0667
     55 H          -5.8990    4.3523    5.4234 H       1  UNL1        0.0675
@<TRIPOS>BOND
     1     1     2    1
     2     1    37    1
     3     1    38    1
     4     1    39    1
     5     2    36   ar
     6     2     3   ar
     7     3     4   ar
     8     3    40    1
     9     4     5    1
    10     4    35   ar
    11     5     6   am
    12     5    41    1
    13     6     7    2
    14     6     8    1
    15     8     9    1
    16     8    42    1
    17     8    43    1
    18     9    10    2
    19     9    11    2
    20     9    12    1
    21    12    34   ar
    22    12    13   ar
    23    13    14   ar
    24    13    44    1
    25    14    15    1
    26    14    27   ar
    27    15    16    1
    28    15    45    1
    29    15    46    1
    30    16    26   ar
    31    16    17   ar
    32    17    18   ar
    33    17    47    1
    34    18    19   ar
    35    18    48    1
    36    19    20   ar
    37    19    49    1
    38    20    21    1
    39    20    26   ar
    40    21    25   ar
    41    21    22   ar
    42    22    23   ar
    43    22    50    1
    44    23    24   ar
    45    24    25   ar
    46    24    51    1
    47    25    52    1
    48    26    53    1
    49    27    34   ar
    50    27    28   ar
    51    28    29   ar
    52    28    54    1
    53    29    30    1
    54    29    31   ar
    55    31    32   ar
    56    31    55    1
    57    32    33    1
    58    32    34   ar
    59    35    36   ar
@<TRIPOS>MOLECULE
*****
 37 40 0 0 0
SMALL
GASTEIGER

@<TRIPOS>ATOM
      1 O           1.0787   -0.0426   -0.7744 O.2     1  UNL1       -0.2449
      2 C           2.0562   -0.0315   -0.0379 C.2     1  UNL1        0.3420
      3 O           2.4835    1.0947    0.5713 O.3     1  UNL1       -0.4770
      4 C           2.8747   -1.2295    0.2397 C.ar    1  UNL1        0.1220
      5 C           2.5402   -2.3990   -0.3277 C.ar    1  UNL1        0.0231
      6 N           3.2383   -3.5879   -0.2143 N.ar    1  UNL1       -0.3426
      7 C           2.7407   -4.8064   -0.8926 C.3     1  UNL1        0.0347
      8 C           1.8217   -4.8530   -2.0861 C.3     1  UNL1       -0.0302
      9 C           3.2743   -5.1676   -2.2592 C.3     1  UNL1       -0.0302
     10 C           4.4226   -3.6253    0.5788 C.ar    1  UNL1        0.0537
     11 C           5.2200   -4.7772    0.6974 C.ar    1  UNL1       -0.0270
     12 C           6.4153   -4.8033    1.4536 C.ar    1  UNL1        0.0207
     13 C           7.2776   -6.0076    1.4568 C.ar    1  UNL1        0.0030
     14 C           7.4119   -6.8152    0.3145 C.ar    1  UNL1       -0.0511
     15 C           8.2279   -7.9448    0.3264 C.ar    1  UNL1       -0.0430
     16 C           8.9139   -8.2435    1.4863 C.ar    1  UNL1        0.0276
     17 N           8.8332   -7.5008    2.6078 N.ar    1  UNL1       -0.2627
     18 C           8.0255   -6.4087    2.5656 C.ar    1  UNL1        0.0353
     19 C           6.7479   -3.6336    2.1557 C.ar    1  UNL1        0.1319
     20 F           7.8562   -3.5816    2.9091 F       1  UNL1       -0.2048
     21 C           5.9758   -2.4795    2.0726 C.ar    1  UNL1       -0.0130
     22 C           4.8380   -2.4723    1.2643 C.ar    1  UNL1        0.0487
     23 C           4.0715   -1.2167    1.1056 C.ar    1  UNL1        0.2034
     24 O           4.4172   -0.1779    1.6639 O.2     1  UNL1       -0.2863
     25 H           3.2891    0.9717    1.1318 H       1  UNL1        0.2954
     26 H           1.6559   -2.4575   -0.9558 H       1  UNL1        0.0819
     27 H           2.5848   -5.6178   -0.1822 H       1  UNL1        0.0528
     28 H           1.1170   -5.6768   -2.1415 H       1  UNL1        0.0286
     29 H           1.4505   -3.9423   -2.5378 H       1  UNL1        0.0286
     30 H           3.8774   -4.4373   -2.7877 H       1  UNL1        0.0286
     31 H           3.5546   -6.1970   -2.4461 H       1  UNL1        0.0286
     32 H           4.9161   -5.6827    0.1785 H       1  UNL1        0.0645
     33 H           6.8910   -6.5705   -0.6076 H       1  UNL1        0.0625
     34 H           8.3258   -8.5701   -0.5542 H       1  UNL1        0.0633
     35 H           9.5686   -9.1081    1.5451 H       1  UNL1        0.0829
     36 H           8.0056   -5.8530    3.4994 H       1  UNL1        0.0836
     37 H           6.2860   -1.5930    2.6191 H       1  UNL1        0.0654
@<TRIPOS>BOND
     1     1     2    2
     2     2     3    1
     3     2     4    1
     4     3    25    1
     5     4    23   ar
     6     4     5   ar
     7     5     6   ar
     8     5    26    1
     9     6     7    1
    10     6    10   ar
    11     7     9    1
    12     7     8    1
    13     7    27    1
    14     8     9    1
    15     8    28    1
    16     8    29    1
    17     9    30    1
    18     9    31    1
    19    10    22   ar
    20    10    11   ar
    21    11    12   ar
    22    11    32    1
    23    12    13    1
    24    12    19   ar
    25    13    18   ar
    26    13    14   ar
    27    14    15   ar
    28    14    33    1
    29    15    16   ar
    30    15    34    1
    31    16    17   ar
    32    16    35    1
    33    17    18   ar
    34    18    36    1
    35    19    20    1
    36    19    21   ar
    37    21    22   ar
    38    21    37    1
    39    22    23   ar
    40    23    24    2
@<TRIPOS>MOLECULE
*****
 155 159 0 0 0
SMALL
GASTEIGER

@<TRIPOS>ATOM
      1 C          -0.5269    2.8527    2.7647 C.3     1  UNL1        0.0039
      2 N          -1.3185    2.3837    3.8750 N.am    1  UNL1       -0.2926
      3 C          -1.6568    0.8334    3.5109 C.2     1  UNL1        0.2173
      4 O          -2.8873    0.6084    3.4939 O.2     1  UNL1       -0.2755
      5 C          -0.5923   -0.5634    2.6993 C.3     1  UNL1        0.0396
      6 C           0.2818   -2.2532    3.0363 C.3     1  UNL1        0.0350
      7 C           0.5450   -4.0330    2.5812 C.3     1  UNL1       -0.0371
      8 C           1.7553   -4.8736    1.9667 C.3     1  UNL1       -0.0518
      9 C           3.0732   -4.1834    1.9919 C.3     1  UNL1       -0.0530
     10 C           2.7183   -2.8344    1.4289 C.3     1  UNL1       -0.0518
     11 C           1.7442   -1.9911    2.3282 C.3     1  UNL1       -0.0371
     12 S          -1.5149   -3.0158    3.2872 S.3     1  UNL1       -0.0858
     13 S          -1.5408   -4.3319    4.9130 S.3     1  UNL1       -0.0903
     14 C          -1.8769   -3.2977    6.3846 C.3     1  UNL1        0.0309
     15 C          -1.6906   -1.7909    6.2249 C.3     1  UNL1        0.1094
     16 C          -0.2448   -1.0822    6.0090 C.2     1  UNL1        0.2373
     17 O          -0.2248    0.1268    5.7540 O.2     1  UNL1       -0.2735
     18 N           0.9723   -1.7233    6.0529 N.am    1  UNL1       -0.2884
     19 C           1.1425   -3.1369    6.1096 C.3     1  UNL1        0.0156
     20 C           2.4982   -3.4024    6.6619 C.3     1  UNL1       -0.0350
     21 C           3.2983   -2.2535    6.0940 C.3     1  UNL1       -0.0243
     22 C           2.3064   -1.0481    6.0257 C.3     1  UNL1        0.1023
     23 C           2.7118   -0.1243    4.8220 C.2     1  UNL1        0.2342
     24 O           1.9331    0.3199    3.9843 O.2     1  UNL1       -0.2738
     25 N           4.0571    0.1887    4.7727 N.am    1  UNL1       -0.3025
     26 C           4.6981    0.8150    3.6065 C.3     1  UNL1        0.0995
     27 C           4.3749    2.2953    3.4508 C.3     1  UNL1       -0.0230
     28 C           4.5569    3.1645    4.6997 C.3     1  UNL1       -0.0165
     29 C           4.0914    4.5855    4.3839 C.3     1  UNL1        0.1048
     30 N           4.4202    5.4729    5.4924 N.pl3   1  UNL1       -0.1138
     31 C           4.4595    6.7345    5.2612 C.cat   1  UNL1        0.3765
     32 N           4.3636    7.3957    4.0943 N.pl3   1  UNL1       -0.2893
     33 N           4.5571    7.6051    6.2853 N.pl3   1  UNL1       -0.2893
     34 C           6.1799    0.3842    3.7078 C.2     1  UNL1        0.2334
     35 O           6.4191   -0.6465    4.3441 O.2     1  UNL1       -0.2738
     36 N           7.1562    1.0499    3.0073 N.am    1  UNL1       -0.3126
     37 C           8.4499    0.3874    2.9544 C.3     1  UNL1        0.0240
     38 C           9.5454    1.0931    2.1496 C.3     1  UNL1        0.0087
     39 N          10.7452    0.2550    2.0998 N.3     1  UNL1       -0.3285
     40 N          -2.7328   -1.1451    7.0933 N.am    1  UNL1       -0.3017
     41 C          -2.7312   -0.8906    8.4466 C.2     1  UNL1        0.2344
     42 O          -3.7082   -1.2265    9.1153 O.2     1  UNL1       -0.2737
     43 C          -1.6098    0.0063    9.0105 C.3     1  UNL1        0.1076
     44 C          -0.2565   -0.4658    9.4438 C.3     1  UNL1        0.0506
     45 C          -0.2587   -1.0658   10.7576 C.2     1  UNL1        0.2127
     46 N           0.7916   -0.6377   11.4767 N.am    1  UNL1       -0.3293
     47 O          -1.1421   -1.8380   11.1613 O.2     1  UNL1       -0.2760
     48 N          -1.1999    0.8259    7.8885 N.am    1  UNL1       -0.3020
     49 C          -1.7087    2.0325    7.8415 C.2     1  UNL1        0.2340
     50 O          -2.8504    1.9931    7.3749 O.2     1  UNL1       -0.2738
     51 C          -1.0500    3.2698    8.5140 C.3     1  UNL1        0.0999
     52 C          -1.5864    4.2142    7.5478 C.3     1  UNL1       -0.0177
     53 C          -2.5206    5.2417    8.1966 C.3     1  UNL1        0.0259
     54 C          -2.9661    6.7229    8.2142 C.2     1  UNL1        0.2106
     55 N          -3.2106    7.4273    7.0654 N.am    1  UNL1       -0.3293
     56 O          -3.2588    7.2575    9.2828 O.2     1  UNL1       -0.2760
     57 N           0.3566    3.8099    8.6609 N.am    1  UNL1       -0.3025
     58 C           0.8896    5.0738    8.2252 C.2     1  UNL1        0.2343
     59 O           1.8620    5.4748    8.8900 O.2     1  UNL1       -0.2738
     60 C           0.2330    6.1389    6.9320 C.3     1  UNL1        0.1034
     61 C           1.2443    6.6837    5.9243 C.3     1  UNL1       -0.0007
     62 C           0.9845    8.0746    5.2970 C.ar    1  UNL1       -0.0451
     63 C           1.1704    8.2348    3.9105 C.ar    1  UNL1       -0.0585
     64 C           1.2808    9.5030    3.3236 C.ar    1  UNL1       -0.0615
     65 C           1.1457   10.6448    4.1029 C.ar    1  UNL1       -0.0617
     66 C           0.7874   10.5095    5.4418 C.ar    1  UNL1       -0.0615
     67 C           0.7015    9.2355    6.0366 C.ar    1  UNL1       -0.0585
     68 N          -1.1010    6.0615    6.0202 N.am    1  UNL1       -0.3021
     69 C          -1.5937    5.4610    4.8478 C.2     1  UNL1        0.2345
     70 O          -1.9772    6.3556    4.0609 O.2     1  UNL1       -0.2737
     71 C          -2.2677    3.8244    4.5048 C.3     1  UNL1        0.1058
     72 C          -3.7927    3.7589    5.4068 C.3     1  UNL1       -0.0005
     73 C          -5.0124    4.9119    5.6367 C.ar    1  UNL1       -0.0449
     74 C          -5.5469    5.2667    6.9483 C.ar    1  UNL1       -0.0551
     75 C          -6.8063    4.8616    7.4372 C.ar    1  UNL1       -0.0199
     76 C          -7.5023    4.0261    6.6168 C.ar    1  UNL1        0.1169
     77 O          -8.5547    3.3271    7.1101 O.3     1  UNL1       -0.5068
     78 C          -7.1356    3.9249    5.2749 C.ar    1  UNL1       -0.0199
     79 C          -6.0062    4.5661    4.7488 C.ar    1  UNL1       -0.0551
     80 H          -0.1179    3.8455    2.9702 H       1  UNL1        0.0429
     81 H          -1.2133    2.9362    1.9111 H       1  UNL1        0.0429
     82 H           0.2712    2.1605    2.5041 H       1  UNL1        0.0429
     83 H          -1.4064   -0.9312    2.0499 H       1  UNL1        0.0372
     84 H           0.0241   -0.0547    1.9530 H       1  UNL1        0.0372
     85 H           0.6739   -4.4919    3.5750 H       1  UNL1        0.0279
     86 H          -0.2916   -4.5518    2.0901 H       1  UNL1        0.0279
     87 H           1.5241   -5.1517    0.9263 H       1  UNL1        0.0266
     88 H           1.8696   -5.8540    2.4683 H       1  UNL1        0.0266
     89 H           3.8110   -4.7187    1.3672 H       1  UNL1        0.0265
     90 H           3.5085   -4.1448    2.9976 H       1  UNL1        0.0265
     91 H           2.3264   -2.9608    0.4113 H       1  UNL1        0.0266
     92 H           3.6683   -2.2925    1.3178 H       1  UNL1        0.0266
     93 H           1.7236   -1.0362    1.8108 H       1  UNL1        0.0279
     94 H           2.3836   -1.8910    3.2056 H       1  UNL1        0.0279
     95 H          -2.9305   -3.5216    6.5898 H       1  UNL1        0.0407
     96 H          -1.3802   -3.6651    7.2900 H       1  UNL1        0.0407
     97 H          -2.1588   -1.5414    5.2648 H       1  UNL1        0.0603
     98 H           1.1154   -3.4681    5.0876 H       1  UNL1        0.0465
     99 H           0.4191   -3.6316    6.7272 H       1  UNL1        0.0465
    100 H           2.4546   -3.3647    7.7524 H       1  UNL1        0.0281
    101 H           2.8428   -4.3919    6.3468 H       1  UNL1        0.0281
    102 H           4.1737   -2.0567    6.7182 H       1  UNL1        0.0288
    103 H           3.6585   -2.5375    5.0953 H       1  UNL1        0.0288
    104 H           2.3873   -0.4370    6.9314 H       1  UNL1        0.0597
    105 H           4.6980   -0.4256    5.2752 H       1  UNL1        0.1495
    106 H           4.3202    0.2939    2.7101 H       1  UNL1        0.0594
    107 H           4.9651    2.7163    2.6233 H       1  UNL1        0.0289
    108 H           3.3262    2.3796    3.1390 H       1  UNL1        0.0289
    109 H           3.9721    2.7666    5.5384 H       1  UNL1        0.0298
    110 H           5.6073    3.1643    5.0039 H       1  UNL1        0.0298
    111 H           4.5479    4.9081    3.4442 H       1  UNL1        0.0693
    112 H           3.0016    4.5790    4.2458 H       1  UNL1        0.0693
    113 H           4.1592    8.3848    4.0820 H       1  UNL1        0.2546
    114 H           4.4281    6.9224    3.2087 H       1  UNL1        0.2546
    115 H           4.7778    7.1816    7.1783 H       1  UNL1        0.2546
    116 H           4.9549    8.5152    6.1206 H       1  UNL1        0.2546
    117 H           7.1384    2.0599    3.0840 H       1  UNL1        0.1488
    118 H           8.7900    0.2357    3.9859 H       1  UNL1        0.0474
    119 H           8.2741   -0.6067    2.5196 H       1  UNL1        0.0474
    120 H           9.2069    1.2877    1.1278 H       1  UNL1        0.0437
    121 H           9.7859    2.0542    2.6148 H       1  UNL1        0.0437
    122 H          11.5299    0.7685    1.7019 H       1  UNL1        0.1183
    123 H          11.0199   -0.0120    3.0447 H       1  UNL1        0.1183
    124 H          -3.6602   -1.4937    6.8535 H       1  UNL1        0.1495
    125 H          -2.0848    0.6757    9.7428 H       1  UNL1        0.0599
    126 H           0.1972   -1.1390    8.7208 H       1  UNL1        0.0381
    127 H           0.3803    0.4470    9.4758 H       1  UNL1        0.0381
    128 H           0.8254   -1.0221   12.4935 H       1  UNL1        0.1449
    129 H           1.4693    0.0356   11.2421 H       1  UNL1        0.1449
    130 H          -1.6511    0.4502    7.0442 H       1  UNL1        0.1495
    131 H          -1.5203    3.3217    9.4995 H       1  UNL1        0.0595
    132 H          -0.7080    4.3964    6.9609 H       1  UNL1        0.0292
    133 H          -1.9721    3.7434    6.6748 H       1  UNL1        0.0292
    134 H          -1.6878    5.5824    8.8178 H       1  UNL1        0.0359
    135 H          -2.9845    5.2675    7.2273 H       1  UNL1        0.0359
    136 H          -3.8027    8.2375    7.2073 H       1  UNL1        0.1449
    137 H          -3.4185    6.9426    6.1951 H       1  UNL1        0.1449
    138 H           0.8398    3.4652    9.4864 H       1  UNL1        0.1495
    139 H          -0.0000    6.9899    7.6052 H       1  UNL1        0.0598
    140 H           2.2329    6.6773    6.3635 H       1  UNL1        0.0336
    141 H           1.2432    5.9589    5.1007 H       1  UNL1        0.0336
    142 H           1.2627    7.3613    3.2698 H       1  UNL1        0.0620
    143 H           1.4905    9.5948    2.2607 H       1  UNL1        0.0618
    144 H           1.2954   11.6302    3.6655 H       1  UNL1        0.0618
    145 H           0.5986   11.4053    6.0313 H       1  UNL1        0.0618
    146 H           0.4327    9.1896    7.0885 H       1  UNL1        0.0620
    147 H          -1.3958    7.0387    5.9876 H       1  UNL1        0.1495
    148 H          -2.7048    4.0699    3.5234 H       1  UNL1        0.0600
    149 H          -4.2974    2.8535    5.0608 H       1  UNL1        0.0336
    150 H          -3.6628    3.5699    6.4547 H       1  UNL1        0.0336
    151 H          -5.1418    6.0636    7.5772 H       1  UNL1        0.0621
    152 H          -7.2067    5.1809    8.4028 H       1  UNL1        0.0654
    153 H          -8.4769    2.4392    6.7172 H       1  UNL1        0.2921
    154 H          -7.6963    3.2854    4.6095 H       1  UNL1        0.0654
    155 H          -5.7397    4.4472    3.7078 H       1  UNL1        0.0621
@<TRIPOS>BOND
     1     1     2    1
     2     1    80    1
     3     1    81    1
     4     1    82    1
     5     2    71    1
     6     2     3   am
     7     3     4    2
     8     3     5    1
     9     5     6    1
    10     5    83    1
    11     5    84    1
    12     6    11    1
    13     6     7    1
    14     6    12    1
    15     7     8    1
    16     7    85    1
    17     7    86    1
    18     8     9    1
    19     8    87    1
    20     8    88    1
    21     9    10    1
    22     9    89    1
    23     9    90    1
    24    10    11    1
    25    10    91    1
    26    10    92    1
    27    11    93    1
    28    11    94    1
    29    12    13    1
    30    13    14    1
    31    14    15    1
    32    14    95    1
    33    14    96    1
    34    15    40    1
    35    16    17    2
    36    16    18   am
    37    18    22    1
    38    18    19    1
    39    19    20    1
    40    19    98    1
    41    19    99    1
    42    20    21    1
    43    20   100    1
    44    20   101    1
    45    21    22    1
    46    21   102    1
    47    21   103    1
    48    23    24    2
    49    23    25   am
    50    25    26    1
    51    25   105    1
    52    26    27    1
    53    26    34    1
    54    26   106    1
    55    27    28    1
    56    27   107    1
    57    27   108    1
    58    28    29    1
    59    28   109    1
    60    28   110    1
    61    29    30    1
    62    29   111    1
    63    29   112    1
    64    30    31    2
    65    31    32    1
    66    31    33    1
    67    32   113    1
    68    32   114    1
    69    33   115    1
    70    33   116    1
    71    34    35    2
    72    34    36   am
    73    36    37    1
    74    36   117    1
    75    37    38    1
    76    37   118    1
    77    37   119    1
    78    38    39    1
    79    38   120    1
    80    38   121    1
    81    39   122    1
    82    39   123    1
    83    40    41   am
    84    40   124    1
    85    41    42    2
    86    41    43    1
    87    43    44    1
    88    43    48    1
    89    43   125    1
    90    44    45    1
    91    44   126    1
    92    44   127    1
    93    45    46   am
    94    45    47    2
    95    46   128    1
    96    46   129    1
    97    48    49   am
    98    48   130    1
    99    49    50    2
   100    49    51    1
   101    51    57    1
   102    52    53    1
   103    52   132    1
   104    52   133    1
   105    53    54    1
   106    53   134    1
   107    53   135    1
   108    54    55   am
   109    54    56    2
   110    55   136    1
   111    55   137    1
   112    57    58   am
   113    57   138    1
   114    58    59    2
   115    58    60    1
   116    60    61    1
   117    60    68    1
   118    60   139    1
   119    61    62    1
   120    61   140    1
   121    61   141    1
   122    62    67   ar
   123    62    63   ar
   124    63    64   ar
   125    63   142    1
   126    64    65   ar
   127    64   143    1
   128    65    66   ar
   129    65   144    1
   130    66    67   ar
   131    66   145    1
   132    67   146    1
   133    68    69   am
   134    68   147    1
   135    69    70    2
   136    69    71    1
   137    72    73    1
   138    72   149    1
   139    72   150    1
   140    73    79   ar
   141    73    74   ar
   142    74    75   ar
   143    74   151    1
   144    75    76   ar
   145    75   152    1
   146    76    77    1
   147    76    78   ar
   148    77   153    1
   149    78    79   ar
   150    78   154    1
   151    79   155    1
   152    15    97    1
   153    15    16    1
   154    22   104    1
   155    22    23    1
   156    51   131    1
   157    51    52    1
   158    71   148    1
   159    71    72    1
@<TRIPOS>MOLECULE
*****
 65 70 0 0 0
SMALL
GASTEIGER

@<TRIPOS>ATOM
      1 C           2.2577    0.3726   -1.3203 C.3     1  UNL1       -0.0185
      2 C           0.9149    0.1393   -0.7408 C.ar    1  UNL1        0.0885
      3 N           0.4959   -1.1198   -0.5695 N.ar    1  UNL1       -0.0827
      4 O          -0.7577   -1.0296   -0.0147 O.2     1  UNL1       -0.3591
      5 C          -1.0977    0.2754    0.1473 C.ar    1  UNL1        0.1421
      6 C          -2.4452    0.4911    0.7143 C.3     1  UNL1       -0.0031
      7 C          -0.0556    1.0807   -0.2850 C.ar    1  UNL1        0.0466
      8 C          -0.0257    2.5364   -0.2224 C.ar    1  UNL1       -0.0120
      9 C           0.5692    3.3161   -1.2080 C.ar    1  UNL1       -0.0518
     10 C           0.5808    4.7144   -1.0912 C.ar    1  UNL1       -0.0350
     11 C           0.0282    5.3733    0.0023 C.ar    1  UNL1        0.0767
     12 N           0.0320    6.7024    0.0182 N.ar    1  UNL1       -0.2270
     13 C          -0.5028    7.2931    1.0980 C.ar    1  UNL1        0.1653
     14 C          -0.5578    8.7365    1.0500 C.ar    1  UNL1        0.0566
     15 C          -0.5881    9.5964   -0.0690 C.ar    1  UNL1        0.0601
     16 N          -0.6312   10.8884    0.2740 N.ar    1  UNL1       -0.1785
     17 N          -0.6053   10.8537    1.6262 N.ar    1  UNL1       -0.2619
     18 C          -0.6295   12.0964    2.3757 C.3     1  UNL1        0.1174
     19 C          -1.9255   12.8700    2.2506 C.2     1  UNL1        0.2320
     20 N          -2.8738   12.4262    1.3760 N.am    1  UNL1       -0.3278
     21 O          -2.1401   13.8833    2.9155 O.2     1  UNL1       -0.2740
     22 C          -0.5862    9.5876    2.1349 C.ar    1  UNL1        0.0367
     23 N          -1.0177    6.6678    2.1709 N.ar    1  UNL1       -0.2119
     24 C          -1.0739    5.3270    2.1293 C.ar    1  UNL1        0.1335
     25 N          -1.7694    4.6393    3.1187 N.pl3   1  UNL1       -0.3031
     26 C          -1.0177    3.6972    3.9770 C.3     1  UNL1        0.0376
     27 C          -1.9723    2.5402    4.3409 C.3     1  UNL1        0.0635
     28 O          -3.1468    3.0162    5.0208 O.3     1  UNL1       -0.3761
     29 C          -3.8389    3.9945    4.2115 C.3     1  UNL1        0.0704
     30 C          -2.9168    5.2054    3.8749 C.3     1  UNL1        0.0734
     31 C          -3.7113    6.3055    3.1982 C.ar    1  UNL1       -0.0249
     32 C          -3.8641    7.5359    3.8579 C.ar    1  UNL1       -0.0567
     33 C          -4.5724    8.5855    3.2728 C.ar    1  UNL1       -0.0614
     34 C          -5.1375    8.4086    2.0154 C.ar    1  UNL1       -0.0617
     35 C          -5.0050    7.1936    1.3479 C.ar    1  UNL1       -0.0614
     36 C          -4.2990    6.1420    1.9368 C.ar    1  UNL1       -0.0567
     37 C          -0.5372    4.6137    1.0277 C.ar    1  UNL1        0.0409
     38 C          -0.5757    3.2043    0.8726 C.ar    1  UNL1       -0.0414
     39 H           2.1780    0.9107   -2.2690 H       1  UNL1        0.0294
     40 H           2.8800    0.9547   -0.6341 H       1  UNL1        0.0294
     41 H           2.7739   -0.5716   -1.5250 H       1  UNL1        0.0294
     42 H          -2.3797    0.9154    1.7126 H       1  UNL1        0.0309
     43 H          -3.0321    1.1656    0.0821 H       1  UNL1        0.0309
     44 H          -2.9952   -0.4496    0.8167 H       1  UNL1        0.0309
     45 H           1.0115    2.8696   -2.0934 H       1  UNL1        0.0624
     46 H           1.0302    5.3082   -1.8861 H       1  UNL1        0.0639
     47 H          -0.5945    9.3302   -1.1189 H       1  UNL1        0.0855
     48 H          -0.4655   11.8545    3.4308 H       1  UNL1        0.0605
     49 H           0.1991   12.7133    2.0124 H       1  UNL1        0.0605
     50 H          -3.6707   13.0271    1.2185 H       1  UNL1        0.1450
     51 H          -2.5940   11.8123    0.6112 H       1  UNL1        0.1450
     52 H          -0.5860    9.3901    3.1976 H       1  UNL1        0.0833
     53 H          -0.6993    4.2081    4.8936 H       1  UNL1        0.0487
     54 H          -0.1113    3.3019    3.5065 H       1  UNL1        0.0487
     55 H          -2.3018    2.0109    3.4474 H       1  UNL1        0.0575
     56 H          -1.4720    1.8120    4.9858 H       1  UNL1        0.0575
     57 H          -4.7230    4.3142    4.7740 H       1  UNL1        0.0582
     58 H          -4.1957    3.4974    3.2984 H       1  UNL1        0.0582
     59 H          -2.5259    5.5926    4.8262 H       1  UNL1        0.0573
     60 H          -3.4127    7.6884    4.8352 H       1  UNL1        0.0621
     61 H          -4.6670    9.5336    3.7890 H       1  UNL1        0.0618
     62 H          -5.6837    9.2274    1.5475 H       1  UNL1        0.0618
     63 H          -5.4408    7.0638    0.3616 H       1  UNL1        0.0618
     64 H          -4.1881    5.2065    1.3952 H       1  UNL1        0.0621
     65 H          -1.0426    2.6177    1.6489 H       1  UNL1        0.0631
@<TRIPOS>BOND
     1     1     2    1
     2     1    39    1
     3     1    40    1
     4     1    41    1
     5     2     7   ar
     6     2     3   ar
     7     3     4   ar
     8     4     5   ar
     9     5     6    1
    10     5     7   ar
    11     6    42    1
    12     6    43    1
    13     6    44    1
    14     7     8    1
    15     8    38   ar
    16     8     9   ar
    17     9    10   ar
    18     9    45    1
    19    10    11   ar
    20    10    46    1
    21    11    37   ar
    22    11    12   ar
    23    12    13   ar
    24    13    14    1
    25    13    23   ar
    26    14    22   ar
    27    14    15   ar
    28    15    16   ar
    29    15    47    1
    30    16    17   ar
    31    17    18    1
    32    17    22   ar
    33    18    19    1
    34    18    48    1
    35    18    49    1
    36    19    20   am
    37    19    21    2
    38    20    50    1
    39    20    51    1
    40    22    52    1
    41    23    24   ar
    42    24    25    1
    43    24    37   ar
    44    25    30    1
    45    25    26    1
    46    26    27    1
    47    26    53    1
    48    26    54    1
    49    27    28    1
    50    27    55    1
    51    27    56    1
    52    28    29    1
    53    29    30    1
    54    29    57    1
    55    29    58    1
    56    31    36   ar
    57    31    32   ar
    58    32    33   ar
    59    32    60    1
    60    33    34   ar
    61    33    61    1
    62    34    35   ar
    63    34    62    1
    64    35    36   ar
    65    35    63    1
    66    36    64    1
    67    37    38   ar
    68    38    65    1
    69    30    59    1
    70    30    31    1
@<TRIPOS>MOLECULE
*****
 42 45 0 0 0
SMALL
GASTEIGER

@<TRIPOS>ATOM
      1 O           1.4873    0.5683    0.7784 O.2     1  UNL1       -0.2523
      2 C           2.3353    0.0722    0.0383 C.2     1  UNL1        0.3067
      3 N           2.7151   -1.2542    0.0977 N.am    1  UNL1       -0.2693
      4 C           2.1620   -2.2289    0.9626 C.ar    1  UNL1        0.0361
      5 C           2.3024   -3.5740    0.5930 C.ar    1  UNL1       -0.0403
      6 C           1.6654   -4.5805    1.3238 C.ar    1  UNL1       -0.0586
      7 C           0.9050   -4.2512    2.4439 C.ar    1  UNL1       -0.0433
      8 C           0.8183   -2.9224    2.8496 C.ar    1  UNL1        0.0427
      9 CL         -0.1053   -2.5153    4.2445 Cl      1  UNL1       -0.0835
     10 C           1.4544   -1.9157    2.1250 C.ar    1  UNL1       -0.0221
     11 N           2.9381    0.8356   -0.9486 N.am    1  UNL1       -0.2806
     12 C           2.5266    2.2560   -1.0665 C.3     1  UNL1        0.0219
     13 C           2.0748    2.6037   -2.5021 C.3     1  UNL1        0.0053
     14 C           3.0671    2.0283   -3.4389 C.ar    1  UNL1        0.0428
     15 N           3.2324    2.3111   -4.7540 N.ar    1  UNL1       -0.2806
     16 N           4.1906    1.5662   -5.3305 N.ar    1  UNL1       -0.1733
     17 C           4.6669    0.7774   -4.3446 C.ar    1  UNL1        0.0974
     18 C           5.7123   -0.2206   -4.5998 C.ar    1  UNL1        0.0024
     19 C           5.8414   -0.7990   -5.8694 C.ar    1  UNL1       -0.0525
     20 C           6.8003   -1.7874   -6.1086 C.ar    1  UNL1       -0.0611
     21 C           7.6390   -2.2133   -5.0810 C.ar    1  UNL1       -0.0617
     22 C           7.5338   -1.6386   -3.8195 C.ar    1  UNL1       -0.0611
     23 C           6.5865   -0.6402   -3.5842 C.ar    1  UNL1       -0.0525
     24 C           3.9781    1.0439   -3.1292 C.ar    1  UNL1        0.0182
     25 C           4.0934    0.4378   -1.7729 C.3     1  UNL1        0.0450
     26 H           3.1721   -1.6344   -0.7118 H       1  UNL1        0.1564
     27 H           2.8713   -3.8551   -0.2901 H       1  UNL1        0.0636
     28 H           1.7434   -5.6173    1.0065 H       1  UNL1        0.0619
     29 H           0.3829   -5.0286    2.9944 H       1  UNL1        0.0632
     30 H           1.3737   -0.8929    2.4782 H       1  UNL1        0.0651
     31 H           1.7209    2.5089   -0.3711 H       1  UNL1        0.0469
     32 H           3.3974    2.8611   -0.7822 H       1  UNL1        0.0469
     33 H           1.0948    2.1505   -2.6953 H       1  UNL1        0.0343
     34 H           1.9807    3.6877   -2.6193 H       1  UNL1        0.0343
     35 H           2.7302    2.9763   -5.3318 H       1  UNL1        0.1885
     36 H           5.1895   -0.4830   -6.6816 H       1  UNL1        0.0624
     37 H           6.8875   -2.2253   -7.0997 H       1  UNL1        0.0618
     38 H           8.3814   -2.9839   -5.2686 H       1  UNL1        0.0618
     39 H           8.1929   -1.9600   -3.0161 H       1  UNL1        0.0618
     40 H           6.5598   -0.1906   -2.5984 H       1  UNL1        0.0624
     41 H           4.9853    0.8159   -1.2619 H       1  UNL1        0.0515
     42 H           4.1810   -0.6439   -1.8657 H       1  UNL1        0.0515
@<TRIPOS>BOND
     1     1     2    2
     2     2     3   am
     3     2    11   am
     4     3     4    1
     5     3    26    1
     6     4    10   ar
     7     4     5   ar
     8     5     6   ar
     9     5    27    1
    10     6     7   ar
    11     6    28    1
    12     7     8   ar
    13     7    29    1
    14     8     9    1
    15     8    10   ar
    16    10    30    1
    17    11    25    1
    18    11    12    1
    19    12    13    1
    20    12    31    1
    21    12    32    1
    22    13    14    1
    23    13    33    1
    24    13    34    1
    25    14    24   ar
    26    14    15   ar
    27    15    16   ar
    28    15    35    1
    29    16    17   ar
    30    17    18    1
    31    17    24   ar
    32    18    23   ar
    33    18    19   ar
    34    19    20   ar
    35    19    36    1
    36    20    21   ar
    37    20    37    1
    38    21    22   ar
    39    21    38    1
    40    22    23   ar
    41    22    39    1
    42    23    40    1
    43    24    25    1
    44    25    41    1
    45    25    42    1
@<TRIPOS>MOLECULE
*****
 24 25 0 0 0
SMALL
GASTEIGER

@<TRIPOS>ATOM
      1 C          -0.0780    1.2174   -1.7901 C.3     1  UNL1        0.0790
      2 O           0.9460    1.2450   -0.7979 O.2     1  UNL1       -0.4899
      3 C           1.0630    2.4335   -0.0803 C.2     1  UNL1        0.1894
      4 C           2.2691    2.8307    0.3464 C.2     1  UNL1        0.1335
      5 CL          3.6971    1.9040    0.0134 Cl      1  UNL1       -0.0756
      6 C           2.4724    4.0769    1.1191 C.2     1  UNL1        0.2122
      7 O           3.5686    4.4192    1.5549 O.2     1  UNL1       -0.2854
      8 C           1.3114    4.9548    1.3408 C.ar    1  UNL1        0.0790
      9 C           1.4841    6.1956    1.9780 C.ar    1  UNL1        0.1286
     10 O           2.6934    6.6538    2.4286 O.3     1  UNL1       -0.5060
     11 C           0.4038    7.0469    2.1857 C.ar    1  UNL1       -0.0160
     12 C          -0.8628    6.6742    1.7507 C.ar    1  UNL1       -0.0160
     13 C          -1.0419    5.4454    1.1137 C.ar    1  UNL1        0.1287
     14 O          -2.2921    5.1295    0.6653 O.3     1  UNL1       -0.5060
     15 C           0.0408    4.5664    0.9145 C.ar    1  UNL1        0.0811
     16 C          -0.1480    3.2348    0.2888 C.2     1  UNL1        0.2332
     17 O          -1.2710    2.7768    0.1051 O.2     1  UNL1       -0.2832
     18 H           0.1833    0.4465   -2.5208 H       1  UNL1        0.0660
     19 H          -0.1574    2.1717   -2.3221 H       1  UNL1        0.0660
     20 H          -1.0350    0.9293   -1.3459 H       1  UNL1        0.0660
     21 H           3.3796    5.9708    2.2496 H       1  UNL1        0.2922
     22 H           0.5544    8.0039    2.6815 H       1  UNL1        0.0655
     23 H          -1.6965    7.3527    1.9101 H       1  UNL1        0.0655
     24 H          -2.9373    5.8041    0.9307 H       1  UNL1        0.2922
@<TRIPOS>BOND
     1     1     2    1
     2     1    18    1
     3     1    19    1
     4     1    20    1
     5     2     3    1
     6     3    16    1
     7     3     4    2
     8     4     5    1
     9     4     6    1
    10     6     7    2
    11     6     8    1
    12     8    15   ar
    13     8     9   ar
    14     9    10    1
    15     9    11   ar
    16    10    21    1
    17    11    12   ar
    18    11    22    1
    19    12    13   ar
    20    12    23    1
    21    13    14    1
    22    13    15   ar
    23    14    24    1
    24    15    16    1
    25    16    17    2
@<TRIPOS>MOLECULE
*****
 53 56 0 0 0
SMALL
GASTEIGER

@<TRIPOS>ATOM
      1 C           6.4305    1.5216    2.8808 C.3     1  UNL1        0.0790
      2 O           6.6092    0.2608    2.2285 O.3     1  UNL1       -0.4915
      3 C           5.4357   -0.4321    2.0945 C.ar    1  UNL1        0.1615
      4 C           4.5171   -0.5356    3.1346 C.ar    1  UNL1       -0.0156
      5 C           3.2859   -1.1460    2.9096 C.ar    1  UNL1       -0.0459
      6 C           2.9780   -1.6309    1.6366 C.ar    1  UNL1        0.0404
      7 C           1.5979   -2.1210    1.4224 C.2     1  UNL1        0.2444
      8 O           1.1332   -2.9865    2.1588 O.2     1  UNL1       -0.2702
      9 N           0.8870   -1.4259    0.4702 N.am    1  UNL1       -0.3084
     10 C          -0.5627   -1.3338    0.6833 C.3     1  UNL1        0.0263
     11 C          -0.8698   -0.5350    1.9592 C.3     1  UNL1       -0.0187
     12 C          -1.5232    0.9191    1.7360 C.3     1  UNL1        0.0129
     13 C          -2.8690    0.7678    2.3748 C.3     1  UNL1       -0.0358
     14 C          -3.5140   -0.1369    1.2873 C.3     1  UNL1       -0.0358
     15 C          -2.6254   -0.0208   -0.0277 C.3     1  UNL1        0.0129
     16 C          -1.3162   -0.7277   -0.4723 C.3     1  UNL1       -0.0187
     17 N          -1.9174    1.2048    0.3354 N.3     1  UNL1       -0.2892
     18 C          -2.7194    2.3285   -0.1621 C.3     1  UNL1        0.0576
     19 C          -2.2313    2.6242   -1.5566 C.ar    1  UNL1        0.1188
     20 C          -1.2112    3.4270   -2.0365 C.ar    1  UNL1       -0.0194
     21 C          -1.0840    3.1418   -3.4148 C.ar    1  UNL1       -0.0236
     22 C          -2.0380    2.1955   -3.7090 C.ar    1  UNL1        0.0921
     23 O          -2.7531    1.8866   -2.5920 O.2     1  UNL1       -0.4665
     24 C           3.9058   -1.5991    0.6038 C.ar    1  UNL1       -0.0042
     25 C           5.1676   -1.0738    0.8746 C.ar    1  UNL1        0.1622
     26 O           6.1368   -1.2641   -0.0773 O.3     1  UNL1       -0.4914
     27 C           7.1222   -2.1623    0.4546 C.3     1  UNL1        0.0790
     28 H           6.5854    1.4005    3.9568 H       1  UNL1        0.0660
     29 H           7.1824    2.2186    2.4993 H       1  UNL1        0.0660
     30 H           5.4452    1.9646    2.6852 H       1  UNL1        0.0660
     31 H           4.7451   -0.1500    4.1227 H       1  UNL1        0.0655
     32 H           2.5636   -1.2268    3.7129 H       1  UNL1        0.0626
     33 H           1.2819   -0.5911    0.0929 H       1  UNL1        0.1493
     34 H          -0.9122   -2.3647    0.7870 H       1  UNL1        0.0499
     35 H          -0.0399   -0.4826    2.6705 H       1  UNL1        0.0298
     36 H          -1.5842   -1.1945    2.4857 H       1  UNL1        0.0298
     37 H          -0.8668    1.6876    2.1532 H       1  UNL1        0.0463
     38 H          -2.8228    0.3056    3.3702 H       1  UNL1        0.0281
     39 H          -3.3614    1.7403    2.4977 H       1  UNL1        0.0281
     40 H          -3.6606   -1.1605    1.6394 H       1  UNL1        0.0281
     41 H          -4.5080    0.2961    1.1127 H       1  UNL1        0.0281
     42 H          -3.2893    0.0109   -0.8974 H       1  UNL1        0.0463
     43 H          -0.6260    0.0158   -0.9346 H       1  UNL1        0.0298
     44 H          -1.4661   -1.4115   -1.3096 H       1  UNL1        0.0298
     45 H          -3.7976    2.0936   -0.2311 H       1  UNL1        0.0507
     46 H          -2.6428    3.2225    0.4587 H       1  UNL1        0.0507
     47 H          -0.6002    4.0829   -1.4320 H       1  UNL1        0.0652
     48 H          -0.3650    3.5469   -4.1129 H       1  UNL1        0.0649
     49 H          -2.3027    1.6616   -4.6100 H       1  UNL1        0.1029
     50 H           3.6811   -2.0135   -0.3760 H       1  UNL1        0.0663
     51 H           7.9328   -1.5931    0.9194 H       1  UNL1        0.0660
     52 H           7.5372   -2.7493   -0.3684 H       1  UNL1        0.0660
     53 H           6.7019   -2.8708    1.1824 H       1  UNL1        0.0660
@<TRIPOS>BOND
     1     1     2    1
     2     1    28    1
     3     1    29    1
     4     1    30    1
     5     2     3    1
     6     3    25   ar
     7     3     4   ar
     8     4     5   ar
     9     4    31    1
    10     5     6   ar
    11     5    32    1
    12     6     7    1
    13     6    24   ar
    14     7     8    2
    15     7     9   am
    16     9    33    1
    17    10    11    1
    18    10    16    1
    19    11    12    1
    20    12    13    1
    21    12    17    1
    22    13    14    1
    23    14    15    1
    24    15    16    1
    25    15    17    1
    26    18    19    1
    27    18    45    1
    28    18    46    1
    29    19    23   ar
    30    19    20   ar
    31    20    21   ar
    32    20    47    1
    33    21    22   ar
    34    21    48    1
    35    22    23   ar
    36    22    49    1
    37    24    25   ar
    38    24    50    1
    39    25    26    1
    40    26    27    1
    41    27    51    1
    42    27    52    1
    43    27    53    1
    44    11    35    1
    45    11    36    1
    46    12    37    1
    47    13    38    1
    48    13    39    1
    49    14    40    1
    50    14    41    1
    51    15    42    1
    52    16    43    1
    53    16    44    1
    54    17    18    1
    55    10    34    1
    56    10     9    1
@<TRIPOS>MOLECULE
*****
 67 69 0 0 0
SMALL
GASTEIGER

@<TRIPOS>ATOM
      1 C           1.2918   -2.3653    1.6110 C.3     1  UNL1       -0.0389
      2 C           1.8230   -1.1215    2.3084 C.3     1  UNL1        0.0539
      3 C           2.8390   -1.5180    3.3815 C.3     1  UNL1       -0.0389
      4 O           2.4726   -0.2348    1.3831 O.3     1  UNL1       -0.3692
      5 C           1.6172    0.5416    0.4956 C.3     1  UNL1        0.0876
      6 C           2.5897    1.3677   -0.4409 C.3     1  UNL1       -0.0183
      7 C           3.6769    0.5004   -1.1506 C.3     1  UNL1       -0.0250
      8 C           4.5943    1.1059   -2.2214 C.ar    1  UNL1       -0.0473
      9 C           4.1684    2.0614   -3.1565 C.ar    1  UNL1       -0.0586
     10 C           4.9834    2.4286   -4.2454 C.ar    1  UNL1       -0.0615
     11 C           6.2399    1.8515   -4.4246 C.ar    1  UNL1       -0.0617
     12 C           6.6982    0.9294   -3.4907 C.ar    1  UNL1       -0.0615
     13 C           5.8852    0.5632   -2.4052 C.ar    1  UNL1       -0.0586
     14 C           0.6544    1.3876    1.3617 C.ar    1  UNL1        0.0228
     15 C           1.2560    2.2524    2.3062 C.ar    1  UNL1       -0.0526
     16 C           0.5364    2.8074    3.3771 C.ar    1  UNL1       -0.0612
     17 C          -0.7872    2.4544    3.5613 C.ar    1  UNL1       -0.0583
     18 C          -1.4141    1.6402    2.6280 C.ar    1  UNL1       -0.0196
     19 C          -0.7449    1.1843    1.4694 C.ar    1  UNL1        0.1262
     20 O          -1.4647    0.5509    0.4692 O.3     1  UNL1       -0.4890
     21 C          -2.8787    0.9457    0.4326 C.3     1  UNL1        0.1166
     22 C          -3.4362    0.9021   -0.9995 C.3     1  UNL1        0.1018
     23 O          -2.5608    1.7360   -1.7733 O.3     1  UNL1       -0.3872
     24 C          -4.9114    1.4321   -1.0439 C.3     1  UNL1        0.0281
     25 N          -5.6034    1.4076   -2.3683 N.3     1  UNL1       -0.2998
     26 C          -7.0062    1.8543   -2.2191 C.3     1  UNL1       -0.0010
     27 C          -7.7533    2.0076   -3.5530 C.3     1  UNL1       -0.0402
     28 C          -6.9910    2.9000   -4.5216 C.3     1  UNL1       -0.0507
     29 C          -5.5846    2.3592   -4.6897 C.3     1  UNL1       -0.0402
     30 C          -4.8809    2.2474   -3.3408 C.3     1  UNL1       -0.0010
     31 H           2.0810   -2.8580    1.0341 H       1  UNL1        0.0254
     32 H           0.4897   -2.1103    0.9130 H       1  UNL1        0.0254
     33 H           0.8894   -3.0796    2.3377 H       1  UNL1        0.0254
     34 H           1.0041   -0.6182    2.8300 H       1  UNL1        0.0590
     35 H           3.7010   -2.0342    2.9467 H       1  UNL1        0.0254
     36 H           3.2232   -0.6307    3.8963 H       1  UNL1        0.0254
     37 H           2.3832   -2.1747    4.1313 H       1  UNL1        0.0254
     38 H           1.0521   -0.1532   -0.1358 H       1  UNL1        0.0647
     39 H           1.9902    1.9127   -1.1768 H       1  UNL1        0.0297
     40 H           3.1277    2.1198    0.1499 H       1  UNL1        0.0297
     41 H           4.3293    0.0855   -0.3710 H       1  UNL1        0.0314
     42 H           3.1803   -0.3512   -1.6321 H       1  UNL1        0.0314
     43 H           3.1837    2.5090   -3.0817 H       1  UNL1        0.0620
     44 H           4.6205    3.1463   -4.9785 H       1  UNL1        0.0618
     45 H           6.8514    2.1108   -5.2879 H       1  UNL1        0.0618
     46 H           7.6783    0.4738   -3.6140 H       1  UNL1        0.0618
     47 H           6.2698   -0.1830   -1.7125 H       1  UNL1        0.0620
     48 H           2.3165    2.4404    2.2679 H       1  UNL1        0.0622
     49 H           1.0364    3.4534    4.0860 H       1  UNL1        0.0618
     50 H          -1.3398    2.8134    4.4250 H       1  UNL1        0.0619
     51 H          -2.4486    1.3686    2.8294 H       1  UNL1        0.0654
     52 H          -3.4559    0.2867    1.0919 H       1  UNL1        0.0723
     53 H          -2.9825    1.9895    0.7619 H       1  UNL1        0.0723
     54 H          -3.3854   -0.1154   -1.4002 H       1  UNL1        0.0640
     55 H          -1.6585    1.4208   -1.5797 H       1  UNL1        0.2100
     56 H          -5.5038    0.8230   -0.3466 H       1  UNL1        0.0453
     57 H          -4.9282    2.4619   -0.6587 H       1  UNL1        0.0453
     58 H          -7.0545    2.8122   -1.6845 H       1  UNL1        0.0426
     59 H          -7.5558    1.1207   -1.6159 H       1  UNL1        0.0426
     60 H          -8.7486    2.4325   -3.3761 H       1  UNL1        0.0278
     61 H          -7.9047    1.0215   -4.0097 H       1  UNL1        0.0278
     62 H          -7.4978    2.9374   -5.4918 H       1  UNL1        0.0266
     63 H          -6.9520    3.9265   -4.1357 H       1  UNL1        0.0266
     64 H          -5.6186    1.3721   -5.1685 H       1  UNL1        0.0278
     65 H          -5.0056    3.0152   -5.3492 H       1  UNL1        0.0278
     66 H          -3.9092    1.8035   -3.5638 H       1  UNL1        0.0426
     67 H          -4.7186    3.2542   -2.9332 H       1  UNL1        0.0426
@<TRIPOS>BOND
     1     1     2    1
     2     1    31    1
     3     1    32    1
     4     1    33    1
     5     2     3    1
     6     2     4    1
     7     2    34    1
     8     3    35    1
     9     3    36    1
    10     3    37    1
    11     5    14    1
    12     5    38    1
    13     6     7    1
    14     6    39    1
    15     6    40    1
    16     7     8    1
    17     7    41    1
    18     7    42    1
    19     8    13   ar
    20     8     9   ar
    21     9    10   ar
    22     9    43    1
    23    10    11   ar
    24    10    44    1
    25    11    12   ar
    26    11    45    1
    27    12    13   ar
    28    12    46    1
    29    13    47    1
    30    14    19   ar
    31    14    15   ar
    32    15    16   ar
    33    15    48    1
    34    16    17   ar
    35    16    49    1
    36    17    18   ar
    37    17    50    1
    38    18    19   ar
    39    18    51    1
    40    19    20    1
    41    20    21    1
    42    21    52    1
    43    21    53    1
    44    22    24    1
    45    22    54    1
    46    23    55    1
    47    24    25    1
    48    24    56    1
    49    24    57    1
    50    25    30    1
    51    25    26    1
    52    26    27    1
    53    26    58    1
    54    26    59    1
    55    27    28    1
    56    27    60    1
    57    27    61    1
    58    28    29    1
    59    28    62    1
    60    28    63    1
    61    29    30    1
    62    29    64    1
    63    29    65    1
    64    30    66    1
    65    30    67    1
    66     5     6    1
    67     5     4    1
    68    22    23    1
    69    22    21    1
@<TRIPOS>MOLECULE
*****
 44 46 0 0 0
SMALL
GASTEIGER

@<TRIPOS>ATOM
      1 C           2.9946   -2.2479   -3.3315 C.3     1  UNL1        0.0032
      2 N           2.5625   -2.0172   -1.9724 N.am    1  UNL1       -0.3038
      3 C           3.4987   -1.6670   -0.9439 C.3     1  UNL1        0.0259
      4 C           2.6732   -1.5053    0.3241 C.3     1  UNL1        0.0597
      5 C           2.9905   -0.1959    1.0314 C.2     1  UNL1        0.2206
      6 O           3.5318    0.7343    0.4324 O.2     1  UNL1       -0.2752
      7 N           2.6494   -0.0858    2.3741 N.am    1  UNL1       -0.3010
      8 C           3.2461    1.0105    3.1411 C.3     1  UNL1        0.0180
      9 C           4.3368    0.4515    4.0576 C.3     1  UNL1        0.0001
     10 C           3.7156   -0.6164    4.9659 C.3     1  UNL1        0.1031
     11 O           4.7075   -1.1293    5.8605 O.3     1  UNL1       -0.4873
     12 C           4.2611   -1.6390    7.0581 C.ar    1  UNL1        0.1391
     13 C           3.0961   -1.1993    7.7013 C.ar    1  UNL1       -0.0185
     14 C           2.6639   -1.7914    8.8904 C.ar    1  UNL1       -0.0582
     15 C           3.4058   -2.8113    9.4723 C.ar    1  UNL1       -0.0602
     16 C           4.6013   -3.2171    8.8799 C.ar    1  UNL1       -0.0398
     17 C           5.0341   -2.6281    7.6865 C.ar    1  UNL1        0.0825
     18 CL          6.5392   -3.1601    7.0228 Cl      1  UNL1       -0.0798
     19 C           3.0958   -1.7398    4.1202 C.3     1  UNL1        0.0001
     20 C           2.0457   -1.1398    3.1910 C.3     1  UNL1        0.0180
     21 C           1.2092   -1.5765   -0.1125 C.3     1  UNL1        0.0367
     22 C           1.2491   -1.9092   -1.5781 C.2     1  UNL1        0.2161
     23 O           0.2595   -2.0744   -2.2772 O.2     1  UNL1       -0.2756
     24 H           3.4846   -1.3438   -3.7048 H       1  UNL1        0.0428
     25 H           3.7064   -3.0781   -3.3363 H       1  UNL1        0.0428
     26 H           2.1449   -2.4895   -3.9749 H       1  UNL1        0.0428
     27 H           4.0404   -0.7697   -1.2665 H       1  UNL1        0.0472
     28 H           4.2225   -2.4795   -0.8410 H       1  UNL1        0.0472
     29 H           2.9246   -2.3373    0.9883 H       1  UNL1        0.0414
     30 H           2.4488    1.4787    3.7311 H       1  UNL1        0.0466
     31 H           3.6657    1.7833    2.4907 H       1  UNL1        0.0466
     32 H           4.7745    1.2518    4.6654 H       1  UNL1        0.0316
     33 H           5.1575    0.0213    3.4695 H       1  UNL1        0.0316
     34 H           2.9190   -0.0958    5.4979 H       1  UNL1        0.0734
     35 H           2.5001   -0.3767    7.3309 H       1  UNL1        0.0654
     36 H           1.7473   -1.4417    9.3595 H       1  UNL1        0.0619
     37 H           3.0614   -3.2740   10.3933 H       1  UNL1        0.0618
     38 H           5.1931   -3.9945    9.3597 H       1  UNL1        0.0633
     39 H           3.8762   -2.2496    3.5404 H       1  UNL1        0.0316
     40 H           2.6404   -2.5026    4.7616 H       1  UNL1        0.0316
     41 H           1.5811   -1.9170    2.5836 H       1  UNL1        0.0466
     42 H           1.2415   -0.6784    3.7777 H       1  UNL1        0.0466
     43 H           0.6648   -0.6394    0.0371 H       1  UNL1        0.0366
     44 H           0.6886   -2.3875    0.4106 H       1  UNL1        0.0366
@<TRIPOS>BOND
     1     1     2    1
     2     1    24    1
     3     1    25    1
     4     1    26    1
     5     2    22   am
     6     2     3    1
     7     3     4    1
     8     3    27    1
     9     3    28    1
    10     4     5    1
    11     4    21    1
    12     4    29    1
    13     5     6    2
    14     5     7   am
    15     7    20    1
    16     7     8    1
    17     8     9    1
    18     8    30    1
    19     8    31    1
    20     9    10    1
    21     9    32    1
    22     9    33    1
    23    10    11    1
    24    10    19    1
    25    10    34    1
    26    11    12    1
    27    12    17   ar
    28    12    13   ar
    29    13    14   ar
    30    13    35    1
    31    14    15   ar
    32    14    36    1
    33    15    16   ar
    34    15    37    1
    35    16    17   ar
    36    16    38    1
    37    17    18    1
    38    19    20    1
    39    19    39    1
    40    19    40    1
    41    20    41    1
    42    20    42    1
    43    21    22    1
    44    21    43    1
    45    21    44    1
    46    22    23    2
@<TRIPOS>MOLECULE
*****
 53 56 0 0 0
SMALL
GASTEIGER

@<TRIPOS>ATOM
      1 O          13.2492   -0.3372   -2.8271 O.2     1  UNL1       -0.2698
      2 C          14.3148   -0.6943   -2.3404 C.2     1  UNL1        0.2497
      3 N          14.5295   -1.0754   -1.0248 N.am    1  UNL1       -0.2815
      4 C          13.5317   -1.1275   -0.0194 C.ar    1  UNL1        0.0338
      5 C          13.9242   -1.2779    1.3150 C.ar    1  UNL1       -0.0386
      6 C          12.9751   -1.2614    2.3580 C.ar    1  UNL1       -0.0336
      7 C          11.6257   -1.0763    2.0492 C.ar    1  UNL1        0.1054
      8 S          10.3699   -1.0018    3.2986 S.O2    1  UNL1        0.0591
      9 O           9.3104   -1.8926    2.8711 O.2     1  UNL1       -0.1530
     10 O          10.9874   -1.1338    4.6033 O.2     1  UNL1       -0.1530
     11 N           9.8005    0.5742    3.1311 N.3     1  UNL1       -0.1758
     12 C          10.1767    1.6089    4.0875 C.3     1  UNL1        0.1293
     13 C           9.0755    2.6845    4.2268 C.3     1  UNL1        0.0017
     14 C           7.7796    2.1871    4.8703 C.ar    1  UNL1       -0.0203
     15 C           7.7237    1.9103    6.2424 C.ar    1  UNL1        0.0060
     16 N           7.9148    0.5162    6.1258 N.ar    1  UNL1       -0.3604
     17 C           7.0006    0.1165    5.1697 C.ar    1  UNL1        0.0467
     18 C           6.3843   -1.1134    4.9585 C.ar    1  UNL1       -0.0378
     19 C           5.2556   -1.0937    4.1420 C.ar    1  UNL1       -0.0598
     20 C           4.8479    0.0846    3.5091 C.ar    1  UNL1       -0.0611
     21 C           5.6258    1.2618    3.5723 C.ar    1  UNL1       -0.0523
     22 C           6.7544    1.2743    4.4173 C.ar    1  UNL1        0.0029
     23 C          11.5244    2.2068    3.6829 C.2     1  UNL1        0.3239
     24 O          12.1209    2.0395    2.6307 O.2     1  UNL1       -0.2492
     25 O          12.0977    2.9424    4.6593 O.3     1  UNL1       -0.4795
     26 C          11.2199   -0.9790    0.7208 C.ar    1  UNL1       -0.0336
     27 C          12.1693   -1.0145   -0.2979 C.ar    1  UNL1       -0.0386
     28 C          15.4829   -0.6690   -3.2515 C.ar    1  UNL1        0.0553
     29 C          16.6129   -1.4749   -3.1108 C.ar    1  UNL1       -0.0439
     30 C          17.6036   -1.4212   -4.0951 C.ar    1  UNL1       -0.0066
     31 C          17.4323   -0.5655   -5.1738 C.ar    1  UNL1        0.2132
     32 F          18.3705   -0.5435   -6.1303 F       1  UNL1       -0.1839
     33 N          16.3654    0.2381   -5.3326 N.ar    1  UNL1       -0.2269
     34 C          15.4112    0.1598   -4.3726 C.ar    1  UNL1        0.0428
     35 H          15.4828   -1.1910   -0.7077 H       1  UNL1        0.1551
     36 H          14.9738   -1.4272    1.5760 H       1  UNL1        0.0637
     37 H          13.3013   -1.3766    3.3891 H       1  UNL1        0.0638
     38 H           8.9866    0.6921    2.5266 H       1  UNL1        0.1489
     39 H          10.3589    1.1536    5.0747 H       1  UNL1        0.0596
     40 H           9.4667    3.4531    4.9130 H       1  UNL1        0.0335
     41 H           8.8879    3.1992    3.2800 H       1  UNL1        0.0335
     42 H           6.8682    2.1370    6.8819 H       1  UNL1        0.0810
     43 H           8.7827    0.0311    6.3072 H       1  UNL1        0.1653
     44 H           6.6778   -2.0027    5.5047 H       1  UNL1        0.0638
     45 H           4.6565   -1.9982    4.0526 H       1  UNL1        0.0618
     46 H           3.8953    0.0887    2.9812 H       1  UNL1        0.0618
     47 H           5.2645    2.1670    3.0932 H       1  UNL1        0.0624
     48 H          12.9784    3.1783    4.2941 H       1  UNL1        0.2951
     49 H          10.1687   -0.8734    0.4681 H       1  UNL1        0.0638
     50 H          11.7929   -0.9454   -1.3158 H       1  UNL1        0.0637
     51 H          16.7210   -2.1722   -2.2867 H       1  UNL1        0.0627
     52 H          18.4877   -2.0462   -4.0466 H       1  UNL1        0.0662
     53 H          14.5489    0.8025   -4.5428 H       1  UNL1        0.0838
@<TRIPOS>BOND
     1     1     2    2
     2     2     3   am
     3     2    28    1
     4     3     4    1
     5     3    35    1
     6     4    27   ar
     7     4     5   ar
     8     5     6   ar
     9     5    36    1
    10     6     7   ar
    11     6    37    1
    12     7     8    1
    13     7    26   ar
    14     8     9    2
    15     8    10    2
    16     8    11    1
    17    11    38    1
    18    12    23    1
    19    12    39    1
    20    13    14    1
    21    13    40    1
    22    13    41    1
    23    14    22   ar
    24    14    15   ar
    25    15    16   ar
    26    15    42    1
    27    16    17   ar
    28    16    43    1
    29    17    22   ar
    30    17    18   ar
    31    18    19   ar
    32    18    44    1
    33    19    20   ar
    34    19    45    1
    35    20    21   ar
    36    20    46    1
    37    21    22   ar
    38    21    47    1
    39    23    24    2
    40    23    25    1
    41    25    48    1
    42    26    27   ar
    43    26    49    1
    44    27    50    1
    45    28    34   ar
    46    28    29   ar
    47    29    30   ar
    48    29    51    1
    49    30    31   ar
    50    30    52    1
    51    31    32    1
    52    31    33   ar
    53    33    34   ar
    54    34    53    1
    55    12    13    1
    56    12    11    1
