@<TRIPOS>MOLECULE
*****
 59 63 0 0 0
SMALL
GASTEIGER

@<TRIPOS>ATOM
      1 C           3.7425    1.1212    0.4375 C.3     1  UNL1        0.0788
      2 O           2.4404    0.6035    0.7010 O.3     1  UNL1       -0.4950
      3 C           2.3961   -0.6988    1.1062 C.ar    1  UNL1        0.1225
      4 C           3.4138   -1.3745    1.7496 C.ar    1  UNL1        0.0030
      5 C           3.2970   -2.7405    2.1379 C.ar    1  UNL1        0.0569
      6 N           4.4541   -3.2606    2.7271 N.pl3   1  UNL1       -0.3420
      7 C           4.5763   -4.6526    3.1734 C.3     1  UNL1        0.0106
      8 C           5.1012   -5.5449    2.0470 C.3     1  UNL1       -0.0219
      9 C           6.4757   -5.1141    1.5302 C.3     1  UNL1        0.0106
     10 N           7.4890   -5.1740    2.5987 N.pl3   1  UNL1       -0.3428
     11 C           8.8445   -5.4441    2.2623 C.ar    1  UNL1        0.0458
     12 C           9.6176   -6.2138    3.1851 C.ar    1  UNL1        0.0219
     13 C           9.1294   -6.7845    4.3808 C.ar    1  UNL1       -0.0494
     14 C           9.9781   -7.4845    5.2533 C.ar    1  UNL1       -0.0426
     15 C          11.3219   -7.6106    4.9386 C.ar    1  UNL1        0.0430
     16 CL         12.3945   -8.4258    6.0051 Cl      1  UNL1       -0.0835
     17 C          11.7987   -7.0963    3.7438 C.ar    1  UNL1       -0.0173
     18 C          10.9716   -6.4431    2.8679 C.ar    1  UNL1        0.0748
     19 N          11.5150   -6.1033    1.7121 N.ar    1  UNL1       -0.2465
     20 C          10.7729   -5.4425    0.8353 C.ar    1  UNL1        0.0737
     21 C          11.2780   -5.3665   -0.4421 C.ar    1  UNL1       -0.0322
     22 C          10.5697   -4.7093   -1.4355 C.ar    1  UNL1       -0.0179
     23 C           9.6481   -3.7720   -1.0239 C.ar    1  UNL1        0.1208
     24 O           9.4458   -2.6702   -1.8024 O.3     1  UNL1       -0.4951
     25 C           9.7828   -1.4714   -1.0742 C.3     1  UNL1        0.0788
     26 C           9.0202   -3.9487    0.1988 C.ar    1  UNL1       -0.0090
     27 C           9.4930   -4.9231    1.1008 C.ar    1  UNL1        0.0253
     28 C           2.1166   -3.4655    1.7976 C.ar    1  UNL1        0.0919
     29 N           1.9510   -4.7786    2.0753 N.ar    1  UNL1       -0.2531
     30 C           0.7876   -5.4005    1.7566 C.ar    1  UNL1        0.0283
     31 C          -0.2643   -4.7535    1.1537 C.ar    1  UNL1       -0.0430
     32 C          -0.0953   -3.4039    0.8485 C.ar    1  UNL1       -0.0510
     33 C           1.0760   -2.7304    1.1682 C.ar    1  UNL1        0.0056
     34 C           1.2323   -1.3779    0.8456 C.ar    1  UNL1       -0.0107
     35 H           3.6277    2.1215    0.0083 H       1  UNL1        0.0660
     36 H           4.2721    0.5005   -0.2936 H       1  UNL1        0.0660
     37 H           4.3248    1.2264    1.3582 H       1  UNL1        0.0660
     38 H           4.3464   -0.8638    1.9909 H       1  UNL1        0.0673
     39 H           4.8835   -2.6087    3.3784 H       1  UNL1        0.1461
     40 H           5.2934   -4.6789    4.0051 H       1  UNL1        0.0462
     41 H           3.6531   -5.0396    3.6113 H       1  UNL1        0.0462
     42 H           5.1476   -6.5808    2.4019 H       1  UNL1        0.0295
     43 H           4.4000   -5.5285    1.2039 H       1  UNL1        0.0295
     44 H           6.7428   -5.7752    0.6964 H       1  UNL1        0.0462
     45 H           6.3965   -4.0950    1.1416 H       1  UNL1        0.0462
     46 H           7.4592   -4.3281    3.1682 H       1  UNL1        0.1461
     47 H           8.0744   -6.6891    4.6389 H       1  UNL1        0.0625
     48 H           9.5821   -7.9241    6.1646 H       1  UNL1        0.0632
     49 H          12.8579   -7.2133    3.4851 H       1  UNL1        0.0653
     50 H          12.1961   -5.8973   -0.6785 H       1  UNL1        0.0640
     51 H          10.7513   -4.9263   -2.4752 H       1  UNL1        0.0655
     52 H          10.2421   -1.6499   -0.0908 H       1  UNL1        0.0660
     53 H          10.4976   -0.8755   -1.6535 H       1  UNL1        0.0660
     54 H           8.8718   -0.8836   -0.9349 H       1  UNL1        0.0660
     55 H           8.1700   -3.3132    0.4368 H       1  UNL1        0.0661
     56 H           0.7421   -6.4498    2.0186 H       1  UNL1        0.0830
     57 H          -1.1869   -5.2859    0.9264 H       1  UNL1        0.0633
     58 H          -0.9389   -2.8783    0.3863 H       1  UNL1        0.0625
     59 H           0.4049   -0.8461    0.3478 H       1  UNL1        0.0661
@<TRIPOS>BOND
     1     1     2    1
     2     1    35    1
     3     1    36    1
     4     1    37    1
     5     2     3    1
     6     3    34   ar
     7     3     4   ar
     8     4     5   ar
     9     4    38    1
    10     5     6    1
    11     5    28   ar
    12     6     7    1
    13     6    39    1
    14     7     8    1
    15     7    40    1
    16     7    41    1
    17     8     9    1
    18     8    42    1
    19     8    43    1
    20     9    10    1
    21     9    44    1
    22     9    45    1
    23    10    11    1
    24    10    46    1
    25    11    27   ar
    26    11    12   ar
    27    12    18   ar
    28    12    13   ar
    29    13    14   ar
    30    13    47    1
    31    14    15   ar
    32    14    48    1
    33    15    16    1
    34    15    17   ar
    35    17    18   ar
    36    17    49    1
    37    18    19   ar
    38    19    20   ar
    39    20    27   ar
    40    20    21   ar
    41    21    22   ar
    42    21    50    1
    43    22    23   ar
    44    22    51    1
    45    23    24    1
    46    23    26   ar
    47    24    25    1
    48    25    52    1
    49    25    53    1
    50    25    54    1
    51    26    27   ar
    52    26    55    1
    53    28    33   ar
    54    28    29   ar
    55    29    30   ar
    56    30    31   ar
    57    30    56    1
    58    31    32   ar
    59    31    57    1
    60    32    33   ar
    61    32    58    1
    62    33    34   ar
    63    34    59    1
@<TRIPOS>MOLECULE
*****
 70 72 0 0 0
SMALL
GASTEIGER

@<TRIPOS>ATOM
      1 C           1.1039   -0.0509    0.7848 C.3     0  UNK0        0.0011
      2 N           0.1904   -1.1873    0.6217 N.pl3   0  UNK0       -0.3271
      3 C          -1.0054   -1.1500    1.5002 C.3     0  UNK0        0.0555
      4 C          -0.6141   -1.2178    2.9564 C.ar    0  UNK0        0.0774
      5 C          -0.3713   -2.4246    3.5877 C.ar    0  UNK0        0.0528
      6 N           0.1671   -2.5036    4.8311 N.ar    0  UNK0       -0.2324
      7 C           0.5318   -1.3630    5.4305 C.ar    0  UNK0        0.1851
      8 N           1.1787   -1.4445    6.5872 N.ar    0  UNK0       -0.1932
      9 C           1.6280   -0.3131    7.1222 C.ar    0  UNK0        0.2163
     10 N           2.3531   -0.4037    8.2896 N.pl3   0  UNK0       -0.3274
     11 N           1.4271    0.9035    6.6220 N.ar    0  UNK0       -0.1978
     12 C           0.7551    0.9662    5.4648 C.ar    0  UNK0        0.1491
     13 N           0.5243    2.2569    4.9554 N.pl3   0  UNK0       -0.3413
     14 C           0.2679   -0.1442    4.7950 C.ar    0  UNK0        0.1477
     15 N          -0.3276   -0.0513    3.5759 N.ar    0  UNK0       -0.2419
     16 C           0.7124   -2.4268    0.2410 C.ar    0  UNK0        0.0298
     17 C          -0.1370   -3.5061   -0.0351 C.ar    0  UNK0       -0.0399
     18 C           0.3535   -4.7621   -0.3988 C.ar    0  UNK0       -0.0479
     19 C           1.7242   -4.9887   -0.5408 C.ar    0  UNK0        0.0368
     20 C           2.1313   -6.3708   -0.9134 C.2     0  UNK0        0.2447
     21 O           1.2777   -7.2522   -0.9923 O.2     0  UNK0       -0.2702
     22 N           3.4554   -6.6375   -1.1591 N.am    1  UNK1       -0.2971
     23 C           3.8792   -8.0056   -1.4635 C.3     1  UNK1        0.1361
     24 C           3.4791   -8.4725   -2.8780 C.3     1  UNK1        0.0419
     25 N           3.6633   -7.5443   -3.9954 N.am    1  UNK1       -0.2971
     26 C           4.8032   -6.8367   -4.2367 C.2     1  UNK1        0.3003
     27 O           5.7333   -6.7591   -3.4528 O.2     1  UNK1       -0.2528
     28 N           4.7887   -6.2232   -5.4603 N.am    1  UNK1       -0.2862
     29 C           5.8101   -5.2379   -5.8513 C.3     1  UNK1        0.1219
     30 C           7.1686   -5.9172   -6.1119 C.3     1  UNK1       -0.0140
     31 C           8.3040   -5.0225   -6.6233 C.3     1  UNK1        0.0470
     32 C           8.5463   -3.8042   -5.7749 C.2     1  UNK1        0.3048
     33 O           8.0531   -3.5450   -4.6909 O.2     1  UNK1       -0.2510
     34 O           9.4218   -2.9533   -6.3422 O.3     1  UNK1       -0.4806
     35 C           5.3231   -4.4232   -7.0598 C.2     1  UNK1        0.3253
     36 O           5.9318   -3.5384   -7.6401 O.2     1  UNK1       -0.2489
     37 O           4.0646   -4.7293   -7.4609 O.3     1  UNK1       -0.4793
     38 C           5.3469   -8.2816   -1.1342 C.2     1  UNK1        0.3268
     39 O           5.9640   -9.3101   -1.3747 O.2     1  UNK1       -0.2489
     40 O           5.9198   -7.3061   -0.3868 O.3     1  UNK1       -0.4793
     41 C           2.5970   -3.9258   -0.3136 C.ar    0  UNK0       -0.0479
     42 C           2.0894   -2.6664    0.0683 C.ar    0  UNK0       -0.0399
     43 H           0.5560    0.8599    1.0536 H       0  UNK0        0.0428
     44 H           1.6276    0.1661   -0.1519 H       0  UNK0        0.0428
     45 H           1.8399   -0.2368    1.5766 H       0  UNK0        0.0428
     46 H          -1.5326   -0.2023    1.3251 H       0  UNK0        0.0529
     47 H          -1.7494   -1.9206    1.2777 H       0  UNK0        0.0529
     48 H          -0.5515   -3.3752    3.0985 H       0  UNK0        0.0849
     49 H           2.3105    0.4667    8.8016 H       0  UNK0        0.1452
     50 H           2.1273   -1.2534    8.7839 H       0  UNK0        0.1452
     51 H           0.6197    2.2715    3.9445 H       0  UNK0        0.1438
     52 H           1.1061    2.9241    5.4513 H       0  UNK0        0.1438
     53 H          -1.2160   -3.3997   -0.0028 H       0  UNK0        0.0636
     54 H          -0.3569   -5.5672   -0.5784 H       0  UNK0        0.0626
     55 H           4.1847   -5.9363   -1.1504 H       1  UNK1        0.1499
     56 H           3.3447   -8.6526   -0.7513 H       1  UNK1        0.0630
     57 H           3.9741   -9.4132   -3.1442 H       1  UNK1        0.0486
     58 H           2.4019   -8.6796   -2.8775 H       1  UNK1        0.0486
     59 H           2.9217   -7.4996   -4.6749 H       1  UNK1        0.1503
     60 H           3.9333   -6.2138   -6.0008 H       1  UNK1        0.1511
     61 H           5.8723   -4.5360   -5.0129 H       1  UNK1        0.0615
     62 H           7.5132   -6.3888   -5.1834 H       1  UNK1        0.0294
     63 H           7.0335   -6.7371   -6.8299 H       1  UNK1        0.0294
     64 H           9.2326   -5.6063   -6.6384 H       1  UNK1        0.0378
     65 H           8.1020   -4.7068   -7.6514 H       1  UNK1        0.0378
     66 H           9.4547   -2.2008   -5.7155 H       1  UNK1        0.2951
     67 H           3.9074   -4.0924   -8.1931 H       1  UNK1        0.2951
     68 H           6.8304   -7.6364   -0.2408 H       1  UNK1        0.2951
     69 H           3.6725   -4.0380   -0.4096 H       0  UNK0        0.0626
     70 H           2.8180   -1.8794    0.2461 H       0  UNK0        0.0636
@<TRIPOS>BOND
     1     1     2    1
     2     1    43    1
     3     1    44    1
     4     1    45    1
     5     2     3    1
     6     2    16    1
     7     3     4    1
     8     3    46    1
     9     3    47    1
    10     4    15   ar
    11     4     5   ar
    12     5     6   ar
    13     5    48    1
    14     6     7   ar
    15     7    14   ar
    16     7     8   ar
    17     8     9   ar
    18     9    10    1
    19     9    11   ar
    20    10    49    1
    21    10    50    1
    22    11    12   ar
    23    12    13    1
    24    12    14   ar
    25    13    51    1
    26    13    52    1
    27    14    15   ar
    28    16    42   ar
    29    16    17   ar
    30    17    18   ar
    31    17    53    1
    32    18    19   ar
    33    18    54    1
    34    19    20    1
    35    19    41   ar
    36    20    21    2
    37    20    22   am
    38    22    23    1
    39    22    55    1
    40    23    24    1
    41    23    38    1
    42    23    56    1
    43    24    25    1
    44    24    57    1
    45    24    58    1
    46    25    26   am
    47    25    59    1
    48    26    27    2
    49    26    28   am
    50    28    29    1
    51    28    60    1
    52    29    30    1
    53    29    35    1
    54    29    61    1
    55    30    31    1
    56    30    62    1
    57    30    63    1
    58    31    32    1
    59    31    64    1
    60    31    65    1
    61    32    33    2
    62    32    34    1
    63    34    66    1
    64    35    36    2
    65    35    37    1
    66    37    67    1
    67    38    39    2
    68    38    40    1
    69    40    68    1
    70    41    42   ar
    71    41    69    1
    72    42    70    1
@<TRIPOS>MOLECULE
*****
 39 41 0 0 0
SMALL
GASTEIGER

@<TRIPOS>ATOM
      1 C           1.2177    2.6381    3.9639 C.3     1  UNL1       -0.0041
      2 C           0.5846    1.8568    2.8827 C.ar    1  UNL1        0.1349
      3 N          -0.0766    0.7668    3.2106 N.ar    1  UNL1       -0.1343
      4 N          -0.8128    0.3755    2.1622 N.ar    1  UNL1       -0.1327
      5 C          -0.6156    1.2210    1.1717 C.ar    1  UNL1        0.1517
      6 C          -1.4151    1.1169   -0.0900 C.3     1  UNL1        0.0544
      7 N          -2.5523    0.2010    0.0002 N.3     1  UNL1       -0.3236
      8 N           0.4411    2.1222    1.5040 N.ar    1  UNL1       -0.2819
      9 C           1.1248    3.0917    0.6168 C.ar    1  UNL1        0.0530
     10 C           0.5859    3.3095   -0.6772 C.ar    1  UNL1       -0.0361
     11 C           1.0531    4.2644   -1.5928 C.ar    1  UNL1       -0.0414
     12 C           2.1062    5.0683   -1.2485 C.ar    1  UNL1        0.0414
     13 CL          2.6677    6.2796   -2.3255 Cl      1  UNL1       -0.0835
     14 C           2.7331    4.8457   -0.0374 C.ar    1  UNL1       -0.0379
     15 C           2.3219    3.8203    0.8893 C.ar    1  UNL1       -0.0178
     16 C           3.3392    3.6436    2.0013 C.3     1  UNL1       -0.0004
     17 C           3.9589    2.2800    2.2225 C.ar    1  UNL1       -0.0430
     18 C           4.7136    2.0832    3.3938 C.ar    1  UNL1       -0.0583
     19 C           5.2169    0.8211    3.7191 C.ar    1  UNL1       -0.0615
     20 C           5.0151   -0.2477    2.8558 C.ar    1  UNL1       -0.0617
     21 C           4.3191   -0.0552    1.6625 C.ar    1  UNL1       -0.0615
     22 C           3.8145    1.2033    1.3376 C.ar    1  UNL1       -0.0583
     23 H           2.2720    2.4102    4.0586 H       1  UNL1        0.0308
     24 H           0.8117    2.3194    4.9328 H       1  UNL1        0.0308
     25 H           1.0375    3.7096    3.8799 H       1  UNL1        0.0308
     26 H          -1.8569    2.0852   -0.3373 H       1  UNL1        0.0503
     27 H          -0.7651    0.7571   -0.8947 H       1  UNL1        0.0503
     28 H          -2.8743   -0.0443   -0.9328 H       1  UNL1        0.1186
     29 H          -2.2398   -0.6582    0.4531 H       1  UNL1        0.1186
     30 H          -0.2343    2.7581   -1.0927 H       1  UNL1        0.0639
     31 H           0.5726    4.3620   -2.5640 H       1  UNL1        0.0633
     32 H           3.6061    5.4602    0.1891 H       1  UNL1        0.0636
     33 H           4.2131    4.2800    1.7911 H       1  UNL1        0.0362
     34 H           2.9337    4.0791    2.9151 H       1  UNL1        0.0362
     35 H           4.8705    2.9029    4.0937 H       1  UNL1        0.0620
     36 H           5.7499    0.6760    4.6544 H       1  UNL1        0.0618
     37 H           5.3805   -1.2351    3.1173 H       1  UNL1        0.0618
     38 H           4.1580   -0.8939    0.9904 H       1  UNL1        0.0618
     39 H           3.2810    1.3138    0.3969 H       1  UNL1        0.0620
@<TRIPOS>BOND
     1     1     2    1
     2     1    23    1
     3     1    24    1
     4     1    25    1
     5     2     8   ar
     6     2     3   ar
     7     3     4   ar
     8     4     5   ar
     9     5     6    1
    10     5     8   ar
    11     6     7    1
    12     6    26    1
    13     6    27    1
    14     7    28    1
    15     7    29    1
    16     8     9    1
    17     9    15   ar
    18     9    10   ar
    19    10    11   ar
    20    10    30    1
    21    11    12   ar
    22    11    31    1
    23    12    13    1
    24    12    14   ar
    25    14    15   ar
    26    14    32    1
    27    15    16    1
    28    16    17    1
    29    16    33    1
    30    16    34    1
    31    17    22   ar
    32    17    18   ar
    33    18    19   ar
    34    18    35    1
    35    19    20   ar
    36    19    36    1
    37    20    21   ar
    38    20    37    1
    39    21    22   ar
    40    21    38    1
    41    22    39    1
@<TRIPOS>MOLECULE
*****
 52 57 0 0 0
SMALL
GASTEIGER

@<TRIPOS>ATOM
      1 C           1.5949    0.7330   -2.4926 C.3     1  UNL1        0.0573
      2 N           0.8692   -0.5108   -2.5938 N.am    1  UNL1       -0.1617
      3 C           0.6534   -1.2864   -1.4912 C.2     1  UNL1        0.3262
      4 O           0.9732   -1.0084   -0.3430 O.2     1  UNL1       -0.2524
      5 C           0.0744   -2.5907   -2.0158 C.3     1  UNL1        0.2463
      6 N          -0.0378   -2.3620   -3.4883 N.2     1  UNL1       -0.0935
      7 C           0.4928   -1.1973   -3.6852 C.2     1  UNL1        0.3728
      8 N           0.6313   -0.7382   -4.9496 N.pl3   1  UNL1       -0.2512
      9 C           0.9852   -3.7800   -1.8368 C.ar    1  UNL1        0.0104
     10 C           2.3686   -3.8196   -2.0006 C.ar    1  UNL1       -0.0464
     11 C           3.0537   -5.0443   -1.9635 C.ar    1  UNL1       -0.0174
     12 C           4.5340   -5.0922   -2.0937 C.ar    1  UNL1       -0.0167
     13 C           5.1942   -6.1844   -2.6869 C.ar    1  UNL1       -0.0540
     14 C           6.5936   -6.2526   -2.7539 C.ar    1  UNL1       -0.0600
     15 C           7.3671   -5.2115   -2.2467 C.ar    1  UNL1       -0.0443
     16 C           6.7443   -4.0974   -1.6826 C.ar    1  UNL1        0.0523
     17 C           7.5314   -3.0133   -1.1728 C.1     1  UNL1        0.0992
     18 N           8.1698   -2.1326   -0.7666 N.1     1  UNL1       -0.1909
     19 C           5.3434   -4.0450   -1.6084 C.ar    1  UNL1       -0.0366
     20 C           2.2702   -6.2127   -1.7971 C.ar    1  UNL1       -0.0538
     21 C           0.8696   -6.1703   -1.6662 C.ar    1  UNL1       -0.0576
     22 C           0.2382   -4.9420   -1.6787 C.ar    1  UNL1       -0.0392
     23 C          -1.2328   -4.6348   -1.6875 C.3     1  UNL1       -0.0166
     24 C          -1.2756   -3.0916   -1.4146 C.3     1  UNL1        0.0370
     25 C          -1.4285   -2.8483    0.1320 C.3     1  UNL1       -0.0152
     26 C          -2.5552   -1.8757    0.2295 C.ar    1  UNL1       -0.0222
     27 C          -3.0520   -1.2383    1.3402 C.ar    1  UNL1        0.0534
     28 N          -4.1226   -0.4203    1.2539 N.ar    1  UNL1       -0.1574
     29 N          -4.7357   -0.2166    0.0384 N.ar    1  UNL1       -0.1574
     30 C          -4.2619   -0.8333   -1.0612 C.ar    1  UNL1        0.0534
     31 C          -3.1714   -1.6666   -0.9901 C.ar    1  UNL1       -0.0222
     32 C          -2.5161   -2.4230   -2.0906 C.3     1  UNL1       -0.0152
     33 H           1.7874    1.1693   -3.4723 H       1  UNL1        0.0602
     34 H           2.5449    0.5384   -1.9801 H       1  UNL1        0.0602
     35 H           1.0160    1.4230   -1.8708 H       1  UNL1        0.0602
     36 H           0.2032    0.1669   -5.1137 H       1  UNL1        0.2412
     37 H           0.2631   -1.4219   -5.6033 H       1  UNL1        0.2412
     38 H           2.8991   -2.8936   -2.2052 H       1  UNL1        0.0628
     39 H           4.6252   -7.0086   -3.1125 H       1  UNL1        0.0624
     40 H           7.0714   -7.1149   -3.2028 H       1  UNL1        0.0618
     41 H           8.4523   -5.2750   -2.2931 H       1  UNL1        0.0630
     42 H           4.8866   -3.1733   -1.1419 H       1  UNL1        0.0636
     43 H           2.7478   -7.1900   -1.7729 H       1  UNL1        0.0624
     44 H           0.3017   -7.0917   -1.5820 H       1  UNL1        0.0621
     45 H          -1.6384   -4.8740   -2.6771 H       1  UNL1        0.0320
     46 H          -1.7718   -5.2160   -0.9332 H       1  UNL1        0.0320
     47 H          -1.7156   -3.7605    0.6660 H       1  UNL1        0.0321
     48 H          -0.5325   -2.4592    0.6150 H       1  UNL1        0.0321
     49 H          -2.6275   -1.3556    2.3292 H       1  UNL1        0.0851
     50 H          -4.7894   -0.6289   -1.9837 H       1  UNL1        0.0851
     51 H          -2.2513   -1.7078   -2.8743 H       1  UNL1        0.0321
     52 H          -3.2095   -3.1605   -2.5056 H       1  UNL1        0.0321
@<TRIPOS>BOND
     1     1     2    1
     2     1    33    1
     3     1    34    1
     4     1    35    1
     5     2     7    1
     6     2     3   am
     7     3     4    2
     8     3     5    1
     9     5    24    1
    10     5     6    1
    11     5     9    1
    12     6     7    2
    13     7     8    1
    14     8    36    1
    15     8    37    1
    16     9    22   ar
    17     9    10   ar
    18    10    11   ar
    19    10    38    1
    20    11    12    1
    21    11    20   ar
    22    12    19   ar
    23    12    13   ar
    24    13    14   ar
    25    13    39    1
    26    14    15   ar
    27    14    40    1
    28    15    16   ar
    29    15    41    1
    30    16    17    1
    31    16    19   ar
    32    17    18    3
    33    19    42    1
    34    20    21   ar
    35    20    43    1
    36    21    22   ar
    37    21    44    1
    38    22    23    1
    39    23    24    1
    40    23    45    1
    41    23    46    1
    42    24    32    1
    43    24    25    1
    44    25    26    1
    45    25    47    1
    46    25    48    1
    47    26    31   ar
    48    26    27   ar
    49    27    28   ar
    50    27    49    1
    51    28    29   ar
    52    29    30   ar
    53    30    31   ar
    54    30    50    1
    55    31    32    1
    56    32    51    1
    57    32    52    1
@<TRIPOS>MOLECULE
*****
 49 51 0 0 0
SMALL
GASTEIGER

@<TRIPOS>ATOM
      1 C          -4.9187    2.2271   -6.9364 C.3     1  UNL1        0.0004
      2 N          -4.3220    3.1352   -7.9141 N.pl3   1  UNL1       -0.3360
      3 C          -4.8099    3.0190   -9.2845 C.3     1  UNL1        0.0004
      4 C          -3.0224    3.5940   -7.6733 C.ar    1  UNL1        0.0292
      5 C          -2.5398    3.7854   -6.3674 C.ar    1  UNL1       -0.0404
      6 C          -1.2473    4.2652   -6.1077 C.ar    1  UNL1       -0.0564
      7 C          -0.3755    4.5732   -7.1530 C.ar    1  UNL1       -0.0385
      8 C           0.9984    5.1314   -6.8875 C.3     1  UNL1        0.0491
      9 C           1.8752    4.2232   -6.0408 C.2     1  UNL1        0.2176
     10 O           1.8913    4.2771   -4.8137 O.2     1  UNL1       -0.2755
     11 N           2.6632    3.3543   -6.7677 N.am    1  UNL1       -0.3104
     12 C           3.5035    2.3696   -6.0992 C.3     1  UNL1        0.0435
     13 C           4.6562    2.9808   -5.2926 C.3     1  UNL1        0.0150
     14 N           5.6125    1.8812   -5.0829 N.3     1  UNL1       -0.3136
     15 C           5.4704    0.9845   -6.2440 C.3     1  UNL1        0.0045
     16 C           4.2794    1.4805   -7.0808 C.3     1  UNL1        0.0162
     17 C           3.5394    0.3490   -7.7650 C.ar    1  UNL1       -0.0412
     18 C           2.5002   -0.3658   -7.1488 C.ar    1  UNL1       -0.0572
     19 C           1.8964   -1.4496   -7.7945 C.ar    1  UNL1       -0.0475
     20 C           2.3280   -1.8319   -9.0619 C.ar    1  UNL1        0.0179
     21 BR          1.5403   -3.3246   -9.9129 Br      1  UNL1       -0.0503
     22 C           3.3475   -1.1312   -9.6968 C.ar    1  UNL1       -0.0475
     23 C           3.9514   -0.0492   -9.0493 C.ar    1  UNL1       -0.0572
     24 C          -0.8387    4.4083   -8.4605 C.ar    1  UNL1       -0.0564
     25 C          -2.1376    3.9357   -8.7086 C.ar    1  UNL1       -0.0404
     26 H          -5.8612    1.8057   -7.3039 H       1  UNL1        0.0428
     27 H          -5.1610    2.7537   -6.0076 H       1  UNL1        0.0428
     28 H          -4.2510    1.3863   -6.7168 H       1  UNL1        0.0428
     29 H          -4.7584    3.9846   -9.8001 H       1  UNL1        0.0428
     30 H          -4.2420    2.2709   -9.8479 H       1  UNL1        0.0428
     31 H          -5.8639    2.7195   -9.3042 H       1  UNL1        0.0428
     32 H          -3.1773    3.5920   -5.5101 H       1  UNL1        0.0636
     33 H          -0.9390    4.4110   -5.0721 H       1  UNL1        0.0621
     34 H           1.5197    5.3376   -7.8307 H       1  UNL1        0.0407
     35 H           0.9080    6.0979   -6.3777 H       1  UNL1        0.0407
     36 H           2.3716    3.1556   -7.7175 H       1  UNL1        0.1490
     37 H           2.8681    1.7886   -5.4199 H       1  UNL1        0.0517
     38 H           5.1494    3.7832   -5.8554 H       1  UNL1        0.0442
     39 H           4.3286    3.4018   -4.3371 H       1  UNL1        0.0442
     40 H           5.3325    1.3705   -4.2429 H       1  UNL1        0.1220
     41 H           5.3356   -0.0450   -5.8918 H       1  UNL1        0.0430
     42 H           6.3900    1.0047   -6.8397 H       1  UNL1        0.0430
     43 H           4.6729    2.1416   -7.8687 H       1  UNL1        0.0380
     44 H           2.1510   -0.1111   -6.1519 H       1  UNL1        0.0621
     45 H           1.1006   -1.9949   -7.2934 H       1  UNL1        0.0629
     46 H           3.6892   -1.4238  -10.6861 H       1  UNL1        0.0629
     47 H           4.7597    0.4747   -9.5552 H       1  UNL1        0.0621
     48 H          -0.2054    4.6586   -9.3081 H       1  UNL1        0.0621
     49 H          -2.4322    3.8357   -9.7492 H       1  UNL1        0.0636
@<TRIPOS>BOND
     1     1     2    1
     2     1    26    1
     3     1    27    1
     4     1    28    1
     5     2     3    1
     6     2     4    1
     7     3    29    1
     8     3    30    1
     9     3    31    1
    10     4    25   ar
    11     4     5   ar
    12     5     6   ar
    13     5    32    1
    14     6     7   ar
    15     6    33    1
    16     7     8    1
    17     7    24   ar
    18     8     9    1
    19     8    34    1
    20     8    35    1
    21     9    10    2
    22     9    11   am
    23    11    12    1
    24    11    36    1
    25    12    13    1
    26    12    16    1
    27    12    37    1
    28    13    14    1
    29    13    38    1
    30    13    39    1
    31    14    15    1
    32    14    40    1
    33    15    16    1
    34    15    41    1
    35    15    42    1
    36    16    17    1
    37    16    43    1
    38    17    23   ar
    39    17    18   ar
    40    18    19   ar
    41    18    44    1
    42    19    20   ar
    43    19    45    1
    44    20    21    1
    45    20    22   ar
    46    22    23   ar
    47    22    46    1
    48    23    47    1
    49    24    25   ar
    50    24    48    1
    51    25    49    1
@<TRIPOS>MOLECULE
*****
 46 48 0 0 0
SMALL
GASTEIGER

@<TRIPOS>ATOM
      1 C          -0.4976    0.1049    1.9817 C.3     1  UNL1       -0.0203
      2 C          -0.2695    0.1784    0.5170 C.ar    1  UNL1        0.0649
      3 N           0.1261   -0.9653   -0.0582 N.ar    1  UNL1       -0.1762
      4 N           0.3660   -0.6442   -1.3330 N.ar    1  UNL1       -0.2711
      5 C           0.9347   -1.6557   -2.1925 C.3     1  UNL1        0.0305
      6 C           0.0959    0.6611   -1.6190 C.ar    1  UNL1        0.0408
      7 C           0.3169    1.2497   -2.9681 C.3     1  UNL1       -0.0223
      8 C          -0.3468    1.2535   -0.4306 C.ar    1  UNL1        0.0129
      9 C          -0.6627    2.7186   -0.3115 C.3     1  UNL1        0.0396
     10 C          -0.8778    3.3960    1.0280 C.3     1  UNL1       -0.0319
     11 C          -1.4604    4.7567    0.6364 C.3     1  UNL1       -0.0384
     12 C          -1.9108    4.6077   -0.8155 C.3     1  UNL1        0.0000
     13 N          -1.8042    3.1712   -1.1373 N.3     1  UNL1       -0.2869
     14 C          -3.0960    2.4822   -0.9037 C.3     1  UNL1        0.0767
     15 C          -4.1948    3.0116   -1.8774 C.2     1  UNL1        0.2351
     16 O          -3.8848    3.4310   -2.9993 O.2     1  UNL1       -0.2738
     17 N          -5.5168    3.0114   -1.4282 N.am    1  UNL1       -0.2525
     18 C          -6.0463    2.3064   -0.2676 C.3     1  UNL1        0.0101
     19 C          -6.4386    3.4813   -2.3556 C.ar    1  UNL1        0.1667
     20 N          -7.2714    2.7521   -3.0595 N.ar    1  UNL1       -0.2328
     21 C          -8.1348    3.5905   -3.7386 C.ar    1  UNL1        0.0368
     22 C          -8.0519    4.9269   -3.4069 C.ar    1  UNL1       -0.0030
     23 S          -6.7571    5.1668   -2.3058 S.2     1  UNL1       -0.0603
     24 H          -1.3095   -0.5984    2.2017 H       1  UNL1        0.0293
     25 H           0.4045   -0.2761    2.4783 H       1  UNL1        0.0293
     26 H          -0.7406    1.0617    2.4382 H       1  UNL1        0.0293
     27 H           1.9341   -1.8952   -1.8183 H       1  UNL1        0.0473
     28 H           0.2938   -2.5404   -2.1594 H       1  UNL1        0.0473
     29 H           1.0030   -1.2915   -3.2188 H       1  UNL1        0.0473
     30 H           1.3628    1.1254   -3.2695 H       1  UNL1        0.0292
     31 H          -0.3231    0.7598   -3.7077 H       1  UNL1        0.0292
     32 H           0.0991    2.3199   -2.9945 H       1  UNL1        0.0292
     33 H           0.2278    3.2086   -0.7410 H       1  UNL1        0.0513
     34 H          -1.5966    2.8679    1.6603 H       1  UNL1        0.0284
     35 H           0.0534    3.5152    1.5920 H       1  UNL1        0.0284
     36 H          -2.2967    5.0226    1.2907 H       1  UNL1        0.0278
     37 H          -0.7053    5.5475    0.7147 H       1  UNL1        0.0278
     38 H          -2.9012    5.0467   -0.9789 H       1  UNL1        0.0427
     39 H          -1.2237    5.1564   -1.4713 H       1  UNL1        0.0427
     40 H          -3.0011    1.4082   -1.1198 H       1  UNL1        0.0522
     41 H          -3.4041    2.6030    0.1362 H       1  UNL1        0.0522
     42 H          -6.6879    2.9999    0.2899 H       1  UNL1        0.0433
     43 H          -6.6533    1.4568   -0.5995 H       1  UNL1        0.0433
     44 H          -5.2739    1.9387    0.4035 H       1  UNL1        0.0433
     45 H          -8.8380    3.1676   -4.4462 H       1  UNL1        0.0835
     46 H          -8.6621    5.7480   -3.7532 H       1  UNL1        0.0709
@<TRIPOS>BOND
     1     1     2    1
     2     1    24    1
     3     1    25    1
     4     1    26    1
     5     2     8   ar
     6     2     3   ar
     7     3     4   ar
     8     4     5    1
     9     4     6   ar
    10     5    27    1
    11     5    28    1
    12     5    29    1
    13     6     7    1
    14     6     8   ar
    15     7    30    1
    16     7    31    1
    17     7    32    1
    18     8     9    1
    19     9    13    1
    20     9    10    1
    21     9    33    1
    22    10    11    1
    23    10    34    1
    24    10    35    1
    25    11    12    1
    26    11    36    1
    27    11    37    1
    28    12    13    1
    29    12    38    1
    30    12    39    1
    31    13    14    1
    32    14    15    1
    33    14    40    1
    34    14    41    1
    35    15    16    2
    36    15    17   am
    37    17    18    1
    38    17    19    1
    39    18    42    1
    40    18    43    1
    41    18    44    1
    42    19    23   ar
    43    19    20   ar
    44    20    21   ar
    45    21    22   ar
    46    21    45    1
    47    22    23   ar
    48    22    46    1
@<TRIPOS>MOLECULE
*****
 51 54 0 0 0
SMALL
GASTEIGER

@<TRIPOS>ATOM
      1 C          -4.6907   -2.2396    2.0191 C.3     1  UNL1        0.0788
      2 O          -3.5370   -2.7224    1.3329 O.3     1  UNL1       -0.4951
      3 C          -2.6076   -3.3469    2.1189 C.ar    1  UNL1        0.1201
      4 C          -1.8435   -4.3390    1.4984 C.ar    1  UNL1       -0.0194
      5 C          -0.9005   -5.0798    2.2252 C.ar    1  UNL1       -0.0511
      6 C          -0.6942   -4.8227    3.5846 C.ar    1  UNL1       -0.0247
      7 C           0.1254   -5.6625    4.4768 C.2     1  UNL1       -0.0511
      8 C           1.1545   -6.4691    4.1470 C.2     1  UNL1       -0.0192
      9 C           1.8744   -7.2738    5.1415 C.2     1  UNL1        0.1256
     10 O           1.0828   -7.7074    6.1930 O.2     1  UNL1       -0.5063
     11 C           3.1692   -7.6704    5.1002 C.2     1  UNL1        0.0635
     12 C           3.8855   -7.5518    3.7801 C.2     1  UNL1        0.2493
     13 O           3.3508   -7.5585    2.6770 O.2     1  UNL1       -0.2701
     14 N           5.2508   -7.5597    3.9049 N.am    1  UNL1       -0.2631
     15 C           5.8038   -6.2160    4.0294 C.3     1  UNL1        0.0070
     16 C           5.8079   -8.6993    4.6548 C.3     1  UNL1        0.1784
     17 C           6.4492   -9.6623    3.6503 C.3     1  UNL1       -0.0072
     18 C           4.7546   -9.4990    5.4564 C.3     1  UNL1        0.0156
     19 C           3.9314   -8.4430    6.1852 C.3     1  UNL1        0.0263
     20 C           4.9429   -7.6411    7.0220 C.ar    1  UNL1        0.0022
     21 C           4.5786   -7.0006    8.2143 C.ar    1  UNL1       -0.0545
     22 C           5.5200   -6.2464    8.9353 C.ar    1  UNL1       -0.0613
     23 C           6.8313   -6.1091    8.4776 C.ar    1  UNL1       -0.0583
     24 C           7.2278   -6.7937    7.3373 C.ar    1  UNL1       -0.0195
     25 C           6.3003   -7.5696    6.6419 C.ar    1  UNL1        0.1271
     26 O           6.8184   -8.2338    5.5531 O.3     1  UNL1       -0.4682
     27 C          -1.4132   -3.7740    4.1765 C.ar    1  UNL1       -0.0511
     28 C          -2.3618   -3.0414    3.4538 C.ar    1  UNL1       -0.0194
     29 H          -5.3973   -1.8699    1.2702 H       1  UNL1        0.0660
     30 H          -4.4455   -1.3986    2.6764 H       1  UNL1        0.0660
     31 H          -5.1834   -3.0420    2.5782 H       1  UNL1        0.0660
     32 H          -2.0130   -4.5638    0.4465 H       1  UNL1        0.0654
     33 H          -0.3613   -5.8757    1.7159 H       1  UNL1        0.0625
     34 H          -0.1593   -5.5941    5.5220 H       1  UNL1        0.0625
     35 H           1.4948   -6.4733    3.1169 H       1  UNL1        0.0654
     36 H           0.1881   -7.8388    5.8171 H       1  UNL1        0.2921
     37 H           5.5365   -5.6431    3.1362 H       1  UNL1        0.0430
     38 H           5.3389   -5.7006    4.8802 H       1  UNL1        0.0430
     39 H           6.8880   -6.2292    4.1361 H       1  UNL1        0.0430
     40 H           5.7022  -10.0443    2.9428 H       1  UNL1        0.0285
     41 H           7.2337   -9.1652    3.0709 H       1  UNL1        0.0285
     42 H           6.9104  -10.5160    4.1580 H       1  UNL1        0.0285
     43 H           5.2434  -10.1753    6.1727 H       1  UNL1        0.0330
     44 H           4.1144  -10.1162    4.8126 H       1  UNL1        0.0330
     45 H           3.2346   -8.9510    6.8629 H       1  UNL1        0.0403
     46 H           3.5688   -7.0965    8.6046 H       1  UNL1        0.0622
     47 H           5.2288   -5.7563    9.8610 H       1  UNL1        0.0618
     48 H           7.5416   -5.4824    9.0081 H       1  UNL1        0.0619
     49 H           8.2486   -6.7097    6.9731 H       1  UNL1        0.0654
     50 H          -1.2534   -3.5199    5.2225 H       1  UNL1        0.0625
     51 H          -2.8893   -2.2424    3.9631 H       1  UNL1        0.0654
@<TRIPOS>BOND
     1     1     2    1
     2     1    29    1
     3     1    30    1
     4     1    31    1
     5     2     3    1
     6     3    28   ar
     7     3     4   ar
     8     4     5   ar
     9     4    32    1
    10     5     6   ar
    11     5    33    1
    12     6     7    1
    13     6    27   ar
    14     7     8    2
    15     7    34    1
    16     8     9    1
    17     8    35    1
    18     9    10    1
    19     9    11    2
    20    10    36    1
    21    11    19    1
    22    11    12    1
    23    12    13    2
    24    12    14   am
    25    14    15    1
    26    14    16    1
    27    15    37    1
    28    15    38    1
    29    15    39    1
    30    16    26    1
    31    16    17    1
    32    16    18    1
    33    17    40    1
    34    17    41    1
    35    17    42    1
    36    18    19    1
    37    18    43    1
    38    18    44    1
    39    19    20    1
    40    19    45    1
    41    20    25   ar
    42    20    21   ar
    43    21    22   ar
    44    21    46    1
    45    22    23   ar
    46    22    47    1
    47    23    24   ar
    48    23    48    1
    49    24    25   ar
    50    24    49    1
    51    25    26    1
    52    27    28   ar
    53    27    50    1
    54    28    51    1
@<TRIPOS>MOLECULE
*****
 71 74 0 0 0
SMALL
GASTEIGER

@<TRIPOS>ATOM
      1 C          -1.1278   -1.7951   -4.2191 C.3     1  UNL1       -0.0396
      2 C           0.1926   -1.4797   -3.5867 C.ar    1  UNL1       -0.0458
      3 C           1.1084   -0.6559   -4.2353 C.ar    1  UNL1       -0.0405
      4 C           2.3329   -0.4322   -3.6285 C.ar    1  UNL1        0.0299
      5 N           2.7007   -0.9786   -2.4529 N.ar    1  UNL1       -0.2405
      6 C           1.8142   -1.7726   -1.8211 C.ar    1  UNL1        0.1192
      7 N           2.1660   -2.4211   -0.6297 N.pl3   1  UNL1       -0.3249
      8 C           3.5224   -2.1556   -0.1837 C.3     1  UNL1        0.0357
      9 C           3.7677   -2.9276    1.0889 C.ar    1  UNL1       -0.0303
     10 C           3.5692   -2.3348    2.3389 C.ar    1  UNL1       -0.0565
     11 C           3.8064   -3.0575    3.5134 C.ar    1  UNL1       -0.0537
     12 C           4.2284   -4.3965    3.4749 C.ar    1  UNL1       -0.0179
     13 C           4.5081   -5.1645    4.7103 C.ar    1  UNL1       -0.0179
     14 C           5.5025   -6.1562    4.7284 C.ar    1  UNL1       -0.0538
     15 C           5.7560   -6.9240    5.8667 C.ar    1  UNL1       -0.0579
     16 C           5.0535   -6.6938    7.0492 C.ar    1  UNL1       -0.0450
     17 C           5.3052   -7.5168    8.2953 C.3     1  UNL1        0.0012
     18 CA          6.7736   -7.9443    8.5384 C.3     1  UNL1        0.1244
     19 N           7.6108   -6.7405    8.5835 N.am    1  UNL1       -0.2981
     20 C           8.9615   -6.7290    8.8418 C.2     1  UNL1        0.2452
     21 O           9.5965   -7.7327    9.1387 O.2     1  UNL1       -0.2702
     22 C           9.6002   -5.3665    8.7053 C.ar    1  UNL1        0.0425
     23 C          10.8748   -5.2246    8.1052 C.ar    1  UNL1       -0.0379
     24 C          11.7375   -6.3648    7.6317 C.3     1  UNL1       -0.0390
     25 C          11.4148   -3.9312    7.9309 C.ar    1  UNL1       -0.0552
     26 C          10.7028   -2.7855    8.2819 C.ar    1  UNL1       -0.0499
     27 C          11.2720   -1.4217    8.0186 C.3     1  UNL1       -0.0397
     28 C           9.4643   -2.9333    8.9039 C.ar    1  UNL1       -0.0552
     29 C           8.9134   -4.2041    9.1523 C.ar    1  UNL1       -0.0379
     30 C           7.5913   -4.2019    9.8810 C.3     1  UNL1       -0.0390
     31 C           6.7374   -8.8139    9.8043 C.2     1  UNL1        0.3256
     32 O           6.1832   -9.8987    9.8849 O.2     1  UNL1       -0.2489
     33 OXT         7.2834   -8.2627   10.9001 O.3     1  UNL1       -0.4793
     34 C           4.0684   -5.6988    7.0561 C.ar    1  UNL1       -0.0579
     35 C           3.7981   -4.9513    5.9024 C.ar    1  UNL1       -0.0538
     36 C           4.3810   -4.9882    2.2077 C.ar    1  UNL1       -0.0537
     37 C           4.1598   -4.2677    1.0325 C.ar    1  UNL1       -0.0565
     38 C           0.5548   -2.0350   -2.3569 C.ar    1  UNL1       -0.0190
     39 H          -1.6729   -0.8733   -4.4420 H       1  UNL1        0.0278
     40 H          -0.9731   -2.3573   -5.1452 H       1  UNL1        0.0278
     41 H          -1.7542   -2.4029   -3.5568 H       1  UNL1        0.0278
     42 H           0.8844   -0.2059   -5.1962 H       1  UNL1        0.0635
     43 H           3.0797    0.2007   -4.0978 H       1  UNL1        0.0830
     44 H           1.4771   -2.2259    0.0889 H       1  UNL1        0.1478
     45 H           4.2539   -2.4799   -0.9362 H       1  UNL1        0.0511
     46 H           3.6879   -1.0865    0.0017 H       1  UNL1        0.0511
     47 H           3.2360   -1.3019    2.4089 H       1  UNL1        0.0621
     48 H           3.6691   -2.5466    4.4633 H       1  UNL1        0.0624
     49 H           6.1065   -6.3509    3.8443 H       1  UNL1        0.0624
     50 H           6.5194   -7.6948    5.7988 H       1  UNL1        0.0620
     51 H           4.9827   -6.9218    9.1645 H       1  UNL1        0.0337
     52 H           4.6469   -8.3911    8.2570 H       1  UNL1        0.0337
     53 HA          7.1653   -8.5782    7.7365 H       1  UNL1        0.0618
     54 H           7.2789   -5.9520    8.0410 H       1  UNL1        0.1498
     55 H          12.1596   -6.1228    6.6483 H       1  UNL1        0.0278
     56 H          12.5646   -6.5224    8.3327 H       1  UNL1        0.0278
     57 H          11.1990   -7.3032    7.5002 H       1  UNL1        0.0278
     58 H          12.4049   -3.8205    7.4888 H       1  UNL1        0.0623
     59 H          12.0984   -1.2138    8.7048 H       1  UNL1        0.0278
     60 H          11.6333   -1.3571    6.9867 H       1  UNL1        0.0278
     61 H          10.5136   -0.6415    8.1454 H       1  UNL1        0.0278
     62 H           8.9130   -2.0437    9.2062 H       1  UNL1        0.0623
     63 H           7.6059   -3.4626   10.6890 H       1  UNL1        0.0278
     64 H           6.7876   -3.9393    9.1848 H       1  UNL1        0.0278
     65 H           7.3590   -5.1527   10.3643 H       1  UNL1        0.0278
     66 HXT         7.2547   -8.9801   11.5659 H       1  UNL1        0.2951
     67 H           3.4910   -5.4970    7.9568 H       1  UNL1        0.0620
     68 H           3.0040   -4.2087    5.9480 H       1  UNL1        0.0624
     69 H           4.6692   -6.0331    2.1131 H       1  UNL1        0.0624
     70 H           4.2895   -4.7606    0.0707 H       1  UNL1        0.0621
     71 H          -0.1222   -2.7002   -1.8304 H       1  UNL1        0.0654
@<TRIPOS>BOND
     1     1     2    1
     2     1    39    1
     3     1    40    1
     4     1    41    1
     5     2    38   ar
     6     2     3   ar
     7     3     4   ar
     8     3    42    1
     9     4     5   ar
    10     4    43    1
    11     5     6   ar
    12     6     7    1
    13     6    38   ar
    14     7     8    1
    15     7    44    1
    16     8     9    1
    17     8    45    1
    18     8    46    1
    19     9    37   ar
    20     9    10   ar
    21    10    11   ar
    22    10    47    1
    23    11    12   ar
    24    11    48    1
    25    12    13    1
    26    12    36   ar
    27    13    35   ar
    28    13    14   ar
    29    14    15   ar
    30    14    49    1
    31    15    16   ar
    32    15    50    1
    33    16    17    1
    34    16    34   ar
    35    17    18    1
    36    17    51    1
    37    17    52    1
    38    18    19    1
    39    18    31    1
    40    18    53    1
    41    19    20   am
    42    19    54    1
    43    20    21    2
    44    20    22    1
    45    22    29   ar
    46    22    23   ar
    47    23    24    1
    48    23    25   ar
    49    24    55    1
    50    24    56    1
    51    24    57    1
    52    25    26   ar
    53    25    58    1
    54    26    27    1
    55    26    28   ar
    56    27    59    1
    57    27    60    1
    58    27    61    1
    59    28    29   ar
    60    28    62    1
    61    29    30    1
    62    30    63    1
    63    30    64    1
    64    30    65    1
    65    31    32    2
    66    31    33    1
    67    33    66    1
    68    34    35   ar
    69    34    67    1
    70    35    68    1
    71    36    37   ar
    72    36    69    1
    73    37    70    1
    74    38    71    1
@<TRIPOS>MOLECULE
*****
 49 53 0 0 0
SMALL
GASTEIGER

@<TRIPOS>ATOM
      1 O           1.9847    1.0537    0.7732 O.2     1  UNL1       -0.2510
      2 C           2.7992    0.3386    0.2113 C.2     1  UNL1        0.3054
      3 O           3.6479    0.8087   -0.7291 O.3     1  UNL1       -0.4806
      4 C           2.9618   -1.1356    0.4747 C.3     1  UNL1        0.0548
      5 C           2.5866   -1.4800    1.9173 C.3     1  UNL1        0.0319
      6 C           3.4856   -0.7867    2.9587 C.3     1  UNL1        0.0970
      7 O           4.6130   -1.6498    3.2447 O.3     1  UNL1       -0.4909
      8 C           4.1297   -2.9012    2.9662 C.ar    1  UNL1        0.1278
      9 C           4.7350   -4.0726    3.3701 C.ar    1  UNL1        0.0257
     10 C           4.0949   -5.2699    3.0533 C.ar    1  UNL1        0.1664
     11 C           2.9157   -5.2752    2.2835 C.ar    1  UNL1        0.1626
     12 C           2.3306   -4.0745    1.8717 C.ar    1  UNL1       -0.0093
     13 C           2.9503   -2.8905    2.2325 C.ar    1  UNL1        0.0048
     14 O           2.2595   -6.4266    1.9313 O.3     1  UNL1       -0.4843
     15 C           3.0179   -7.6007    2.2582 C.3     1  UNL1        0.1307
     16 C           3.6772   -7.5006    3.6435 C.3     1  UNL1        0.1591
     17 C           2.6679   -7.4117    4.7921 C.ar    1  UNL1       -0.0035
     18 C           1.6772   -8.3865    4.9531 C.ar    1  UNL1       -0.0549
     19 C           0.6659   -8.2129    5.8976 C.ar    1  UNL1       -0.0608
     20 C           0.6168   -7.0515    6.6766 C.ar    1  UNL1       -0.0540
     21 C           1.6107   -6.0670    6.5772 C.ar    1  UNL1       -0.0175
     22 C           1.5596   -4.7902    7.3350 C.ar    1  UNL1       -0.0179
     23 C           2.1161   -3.6070    6.8023 C.ar    1  UNL1       -0.0540
     24 C           2.1049   -2.4005    7.5059 C.ar    1  UNL1       -0.0612
     25 C           1.5059   -2.3388    8.7589 C.ar    1  UNL1       -0.0617
     26 C           0.9231   -3.4802    9.2993 C.ar    1  UNL1       -0.0612
     27 C           0.9542   -4.6921    8.5987 C.ar    1  UNL1       -0.0540
     28 C           2.6583   -6.3153    5.6718 C.ar    1  UNL1       -0.0472
     29 O           4.6258   -6.4104    3.6138 O.3     1  UNL1       -0.4770
     30 H           4.2560    0.1391   -1.0969 H       1  UNL1        0.2951
     31 H           2.3183   -1.6752   -0.2298 H       1  UNL1        0.0385
     32 H           3.9984   -1.4305    0.2720 H       1  UNL1        0.0385
     33 H           1.5325   -1.2619    2.1197 H       1  UNL1        0.0388
     34 H           2.9420   -0.6307    3.9006 H       1  UNL1        0.0703
     35 H           3.8641    0.1875    2.6334 H       1  UNL1        0.0703
     36 H           5.6401   -4.0566    3.9655 H       1  UNL1        0.0692
     37 H           1.4080   -4.0807    1.3006 H       1  UNL1        0.0659
     38 H           3.7802   -7.7311    1.4794 H       1  UNL1        0.0738
     39 H           2.3386   -8.4566    2.1954 H       1  UNL1        0.0738
     40 H           4.2734   -8.4057    3.8143 H       1  UNL1        0.0819
     41 H           1.6636   -9.2771    4.3296 H       1  UNL1        0.0621
     42 H          -0.1125   -8.9649    6.0019 H       1  UNL1        0.0618
     43 H          -0.2277   -6.9218    7.3486 H       1  UNL1        0.0624
     44 H           2.5673   -3.6025    5.8132 H       1  UNL1        0.0624
     45 H           2.5618   -1.5173    7.0720 H       1  UNL1        0.0618
     46 H           1.4922   -1.4019    9.3100 H       1  UNL1        0.0618
     47 H           0.4455   -3.4338   10.2755 H       1  UNL1        0.0618
     48 H           0.5039   -5.5645    9.0656 H       1  UNL1        0.0624
     49 H           3.4766   -5.6013    5.6227 H       1  UNL1        0.0628
@<TRIPOS>BOND
     1     1     2    2
     2     2     3    1
     3     2     4    1
     4     3    30    1
     5     4     5    1
     6     4    31    1
     7     4    32    1
     8     5     6    1
     9     5    13    1
    10     5    33    1
    11     6     7    1
    12     6    34    1
    13     6    35    1
    14     7     8    1
    15     8    13   ar
    16     8     9   ar
    17     9    10   ar
    18     9    36    1
    19    10    29    1
    20    10    11   ar
    21    11    12   ar
    22    11    14    1
    23    12    13   ar
    24    12    37    1
    25    14    15    1
    26    15    16    1
    27    15    38    1
    28    15    39    1
    29    16    17    1
    30    16    29    1
    31    16    40    1
    32    17    28   ar
    33    17    18   ar
    34    18    19   ar
    35    18    41    1
    36    19    20   ar
    37    19    42    1
    38    20    21   ar
    39    20    43    1
    40    21    22    1
    41    21    28   ar
    42    22    27   ar
    43    22    23   ar
    44    23    24   ar
    45    23    44    1
    46    24    25   ar
    47    24    45    1
    48    25    26   ar
    49    25    46    1
    50    26    27   ar
    51    26    47    1
    52    27    48    1
    53    28    49    1
@<TRIPOS>MOLECULE
*****
 48 49 0 0 0
SMALL
GASTEIGER

@<TRIPOS>ATOM
      1 C          -0.0395   -0.9632    3.5207 C.3     1  UNL1        0.0365
      2 O          -0.2617   -1.5216    2.2357 O.3     1  UNL1       -0.3826
      3 C           0.7702   -2.4045    1.8107 C.3     1  UNL1        0.0529
      4 C           0.4839   -2.8701    0.3713 C.3     1  UNL1        0.0132
      5 C          -0.9408   -3.4311    0.2528 C.3     1  UNL1        0.0063
      6 N          -1.3209   -3.8964   -1.0752 N.3     1  UNL1       -0.2892
      7 C          -1.1697   -2.9518   -2.1814 C.3     1  UNL1        0.0422
      8 C          -2.1242   -1.7941   -2.0267 C.ar    1  UNL1        0.0627
      9 C          -3.4403   -1.7605   -2.4541 C.ar    1  UNL1       -0.0001
     10 S          -4.1470   -0.2447   -2.0913 S.2     1  UNL1       -0.0805
     11 C          -2.6682    0.2602   -1.3792 C.ar    1  UNL1        0.0755
     12 C          -2.5578    1.6227   -0.7881 C.3     1  UNL1       -0.0159
     13 N          -1.6903   -0.6199   -1.4201 N.ar    1  UNL1       -0.2479
     14 C          -0.9698   -5.2766   -1.3796 C.3     1  UNL1        0.0575
     15 C           0.3061   -5.8665   -0.8539 C.ar    1  UNL1        0.1238
     16 N           0.5466   -7.1692   -0.8966 N.ar    1  UNL1       -0.2393
     17 C           1.7752   -7.3599   -0.3395 C.ar    1  UNL1        0.0458
     18 C           2.3035   -6.1624    0.0639 C.ar    1  UNL1        0.0243
     19 N           1.3613   -5.2112   -0.2586 N.ar    1  UNL1       -0.3329
     20 C           1.6031   -3.7887   -0.1438 C.3     1  UNL1        0.0305
     21 O           2.0364    1.0140   -1.4326 O.2     2  UNL2       -0.2408
     22 C           2.9119    0.8047   -0.5986 C.2     2  UNL2        0.4107
     23 O           3.4310   -0.4520   -0.4116 O.3     2  UNL2       -0.4744
     24 C           3.5467    1.8507    0.3230 C.3     2  UNL2        0.4910
     25 F           4.5246    1.2696    1.0856 F       2  UNL2       -0.1606
     26 F           4.1456    2.8713   -0.3470 F       2  UNL2       -0.1606
     27 F           2.6677    2.4074    1.2012 F       2  UNL2       -0.1606
     28 H          -0.9769   -1.0136    4.0809 H       1  UNL1        0.0523
     29 H           0.2383    0.0876    3.4066 H       1  UNL1        0.0523
     30 H           0.7384   -1.4913    4.0806 H       1  UNL1        0.0523
     31 H           1.7283   -1.8702    1.8402 H       1  UNL1        0.0563
     32 H           0.8196   -3.2624    2.4900 H       1  UNL1        0.0563
     33 H           0.5311   -1.9524   -0.2309 H       1  UNL1        0.0353
     34 H          -1.6599   -2.6602    0.5553 H       1  UNL1        0.0431
     35 H          -1.0900   -4.2329    0.9892 H       1  UNL1        0.0431
     36 H          -0.1414   -2.5944   -2.2928 H       1  UNL1        0.0491
     37 H          -1.4253   -3.4386   -3.1322 H       1  UNL1        0.0491
     38 H          -4.0023   -2.5379   -2.9501 H       1  UNL1        0.0712
     39 H          -2.4146    2.3701   -1.5748 H       1  UNL1        0.0298
     40 H          -3.4553    1.8872   -0.2178 H       1  UNL1        0.0298
     41 H          -1.7027    1.6777   -0.1053 H       1  UNL1        0.0298
     42 H          -1.7779   -5.8934   -0.9618 H       1  UNL1        0.0506
     43 H          -1.0101   -5.4683   -2.4591 H       1  UNL1        0.0506
     44 H           2.2172   -8.3462   -0.2731 H       1  UNL1        0.0845
     45 H           3.2551   -5.9156    0.5136 H       1  UNL1        0.0825
     46 H           2.4881   -3.6742    0.4966 H       1  UNL1        0.0496
     47 H           1.9189   -3.4668   -1.1439 H       1  UNL1        0.0496
     48 H           4.1544   -0.4444    0.2529 H       2  UNL2        0.2953
@<TRIPOS>BOND
     1     1     2    1
     2     1    28    1
     3     1    29    1
     4     1    30    1
     5     2     3    1
     6     3     4    1
     7     3    31    1
     8     3    32    1
     9     4    20    1
    10     4     5    1
    11     4    33    1
    12     5     6    1
    13     5    34    1
    14     5    35    1
    15     6     7    1
    16     6    14    1
    17     7     8    1
    18     7    36    1
    19     7    37    1
    20     8    13   ar
    21     8     9   ar
    22     9    10   ar
    23     9    38    1
    24    10    11   ar
    25    11    12    1
    26    11    13   ar
    27    12    39    1
    28    12    40    1
    29    12    41    1
    30    14    15    1
    31    14    42    1
    32    14    43    1
    33    15    19   ar
    34    15    16   ar
    35    16    17   ar
    36    17    18   ar
    37    17    44    1
    38    18    19   ar
    39    18    45    1
    40    19    20    1
    41    20    46    1
    42    20    47    1
    43    21    22    2
    44    22    23    1
    45    22    24    1
    46    23    48    1
    47    24    25    1
    48    24    26    1
    49    24    27    1
