@<TRIPOS>MOLECULE
*****
 42 45 0 0 0
SMALL
GASTEIGER

@<TRIPOS>ATOM
      1 O           1.4067   -0.8119   -0.7035 O.2     1  UNL1       -0.2523
      2 C           2.2566   -0.2191   -0.0393 C.2     1  UNL1        0.3067
      3 N           2.6211    1.0924   -0.2630 N.am    1  UNL1       -0.2693
      4 C           2.0484    1.9490   -1.2330 C.ar    1  UNL1        0.0361
      5 C           2.1701    3.3302   -1.0253 C.ar    1  UNL1       -0.0403
      6 C           1.5165    4.2345   -1.8662 C.ar    1  UNL1       -0.0586
      7 C           0.7580    3.7646   -2.9364 C.ar    1  UNL1       -0.0433
      8 C           0.6883    2.3960   -3.1816 C.ar    1  UNL1        0.0427
      9 CL         -0.2328    1.8149   -4.5150 Cl      1  UNL1       -0.0835
     10 C           1.3407    1.4904   -2.3457 C.ar    1  UNL1       -0.0221
     11 N           2.8806   -0.8523    1.0248 N.am    1  UNL1       -0.2806
     12 C           2.4780   -2.2460    1.3327 C.3     1  UNL1        0.0219
     13 C           2.0294   -2.4000    2.8034 C.3     1  UNL1        0.0053
     14 C           3.0126   -1.6896    3.6553 C.ar    1  UNL1        0.0428
     15 N           3.1679   -1.7769    4.9988 N.ar    1  UNL1       -0.2806
     16 N           4.1175   -0.9471    5.4684 N.ar    1  UNL1       -0.1733
     17 C           4.5953   -0.3062    4.3816 C.ar    1  UNL1        0.0974
     18 C           5.6347    0.7239    4.4944 C.ar    1  UNL1        0.0024
     19 C           5.7580    1.4761    5.6709 C.ar    1  UNL1       -0.0525
     20 C           6.7110    2.4948    5.7741 C.ar    1  UNL1       -0.0611
     21 C           7.5494    2.7763    4.6955 C.ar    1  UNL1       -0.0617
     22 C           7.4493    2.0302    3.5255 C.ar    1  UNL1       -0.0611
     23 C           6.5084    1.0025    3.4323 C.ar    1  UNL1       -0.0525
     24 C           3.9172   -0.7513    3.2110 C.ar    1  UNL1        0.0182
     25 C           4.0380   -0.3446    1.7836 C.3     1  UNL1        0.0450
     26 H           3.0723    1.5738    0.4943 H       1  UNL1        0.1564
     27 H           2.7372    3.7215   -0.1838 H       1  UNL1        0.0636
     28 H           1.5804    5.3024   -1.6738 H       1  UNL1        0.0619
     29 H           0.2248    4.4644   -3.5735 H       1  UNL1        0.0632
     30 H           1.2721    0.4316   -2.5737 H       1  UNL1        0.0651
     31 H           1.6741   -2.5951    0.6780 H       1  UNL1        0.0469
     32 H           3.3525   -2.8789    1.1322 H       1  UNL1        0.0469
     33 H           1.0429   -1.9383    2.9337 H       1  UNL1        0.0343
     34 H           1.9503   -3.4585    3.0678 H       1  UNL1        0.0343
     35 H           2.6639   -2.3550    5.6634 H       1  UNL1        0.1885
     36 H           5.1046    1.2744    6.5175 H       1  UNL1        0.0624
     37 H           6.7939    3.0668    6.6917 H       1  UNL1        0.0618
     38 H           8.2868    3.5714    4.7732 H       1  UNL1        0.0618
     39 H           8.1081    2.2400    2.6870 H       1  UNL1        0.0618
     40 H           6.4880    0.4189    2.5183 H       1  UNL1        0.0624
     41 H           4.9291   -0.7963    1.3343 H       1  UNL1        0.0515
     42 H           4.1322    0.7385    1.7202 H       1  UNL1        0.0515
@<TRIPOS>BOND
     1     1     2    2
     2     2     3   am
     3     2    11   am
     4     3     4    1
     5     3    26    1
     6     4    10   ar
     7     4     5   ar
     8     5     6   ar
     9     5    27    1
    10     6     7   ar
    11     6    28    1
    12     7     8   ar
    13     7    29    1
    14     8     9    1
    15     8    10   ar
    16    10    30    1
    17    11    25    1
    18    11    12    1
    19    12    13    1
    20    12    31    1
    21    12    32    1
    22    13    14    1
    23    13    33    1
    24    13    34    1
    25    14    24   ar
    26    14    15   ar
    27    15    16   ar
    28    15    35    1
    29    16    17   ar
    30    17    18    1
    31    17    24   ar
    32    18    23   ar
    33    18    19   ar
    34    19    20   ar
    35    19    36    1
    36    20    21   ar
    37    20    37    1
    38    21    22   ar
    39    21    38    1
    40    22    23   ar
    41    22    39    1
    42    23    40    1
    43    24    25    1
    44    25    41    1
    45    25    42    1
