@<TRIPOS>MOLECULE
*****
 67 69 0 0 0
SMALL
GASTEIGER

@<TRIPOS>ATOM
      1 C          -3.1424    2.4244    2.7981 C.3     1  UNL1       -0.0389
      2 C          -3.2058    3.8345    2.2296 C.3     1  UNL1        0.0539
      3 C          -3.1377    4.8501    3.3772 C.3     1  UNL1       -0.0389
      4 O          -2.1124    4.1403    1.3598 O.3     1  UNL1       -0.3692
      5 C          -2.0201    3.5108    0.0523 C.3     1  UNL1        0.0876
      6 C          -0.6801    4.0410   -0.5433 C.3     1  UNL1       -0.0183
      7 C           0.5076    3.8102    0.4128 C.3     1  UNL1       -0.0250
      8 C           1.8585    4.3450   -0.0241 C.ar    1  UNL1       -0.0473
      9 C           2.8184    3.4916   -0.5858 C.ar    1  UNL1       -0.0586
     10 C           4.1227    3.9318   -0.8128 C.ar    1  UNL1       -0.0615
     11 C           4.4907    5.2416   -0.4945 C.ar    1  UNL1       -0.0617
     12 C           3.5355    6.1141    0.0199 C.ar    1  UNL1       -0.0615
     13 C           2.2268    5.6727    0.2470 C.ar    1  UNL1       -0.0586
     14 C          -3.2084    3.8494   -0.8574 C.ar    1  UNL1        0.0228
     15 C          -3.8494    5.0942   -0.6487 C.ar    1  UNL1       -0.0526
     16 C          -5.0282    5.4434   -1.3035 C.ar    1  UNL1       -0.0612
     17 C          -5.5969    4.5578   -2.1997 C.ar    1  UNL1       -0.0583
     18 C          -4.9487    3.3582   -2.4836 C.ar    1  UNL1       -0.0196
     19 C          -3.7247    3.0073   -1.8729 C.ar    1  UNL1        0.1262
     20 O          -3.0254    1.8748   -2.2669 O.3     1  UNL1       -0.4890
     21 C          -3.4009    1.3852   -3.5812 C.3     1  UNL1        0.1166
     22 C          -2.4584    0.3108   -4.1557 C.3     1  UNL1        0.1018
     23 O          -2.8527    0.0439   -5.5128 O.3     1  UNL1       -0.3872
     24 C          -2.5547   -0.9915   -3.3372 C.3     1  UNL1        0.0281
     25 N          -1.6807   -2.1229   -3.7622 N.3     1  UNL1       -0.2998
     26 C          -0.2618   -1.7317   -3.8251 C.3     1  UNL1       -0.0010
     27 C           0.6626   -2.9225   -4.0972 C.3     1  UNL1       -0.0402
     28 C           0.4952   -3.9938   -3.0317 C.3     1  UNL1       -0.0507
     29 C          -0.9633   -4.4176   -2.9642 C.3     1  UNL1       -0.0402
     30 C          -1.8875   -3.2148   -2.7826 C.3     1  UNL1       -0.0010
     31 H          -2.1674    2.2245    3.2534 H       1  UNL1        0.0254
     32 H          -3.2987    1.6800    2.0134 H       1  UNL1        0.0254
     33 H          -3.9177    2.2794    3.5596 H       1  UNL1        0.0254
     34 H          -4.1608    3.9796    1.7169 H       1  UNL1        0.0590
     35 H          -2.2597    4.6743    4.0103 H       1  UNL1        0.0254
     36 H          -3.0458    5.8719    2.9931 H       1  UNL1        0.0254
     37 H          -4.0297    4.7975    4.0107 H       1  UNL1        0.0254
     38 H          -1.9556    2.4274    0.2051 H       1  UNL1        0.0647
     39 H          -0.4848    3.5686   -1.5132 H       1  UNL1        0.0297
     40 H          -0.7680    5.1213   -0.7254 H       1  UNL1        0.0297
     41 H           0.2985    4.2609    1.3918 H       1  UNL1        0.0314
     42 H           0.6014    2.7359    0.6069 H       1  UNL1        0.0314
     43 H           2.5666    2.4576   -0.8081 H       1  UNL1        0.0620
     44 H           4.8708    3.2507   -1.2126 H       1  UNL1        0.0618
     45 H           5.5186    5.5787   -0.6420 H       1  UNL1        0.0618
     46 H           3.8157    7.1366    0.2709 H       1  UNL1        0.0618
     47 H           1.5063    6.3601    0.6854 H       1  UNL1        0.0620
     48 H          -3.4385    5.7973    0.0748 H       1  UNL1        0.0622
     49 H          -5.5081    6.3942   -1.0934 H       1  UNL1        0.0618
     50 H          -6.5312    4.8007   -2.6984 H       1  UNL1        0.0619
     51 H          -5.4391    2.7151   -3.2083 H       1  UNL1        0.0654
     52 H          -4.4055    0.9428   -3.5320 H       1  UNL1        0.0723
     53 H          -3.4241    2.2181   -4.2984 H       1  UNL1        0.0723
     54 H          -1.4383    0.7032   -4.1690 H       1  UNL1        0.0640
     55 H          -2.5149   -0.8478   -5.7259 H       1  UNL1        0.2100
     56 H          -2.3784   -0.7521   -2.2821 H       1  UNL1        0.0453
     57 H          -3.5879   -1.3541   -3.4330 H       1  UNL1        0.0453
     58 H           0.0443   -1.2418   -2.8922 H       1  UNL1        0.0426
     59 H          -0.1094   -1.0165   -4.6412 H       1  UNL1        0.0426
     60 H           1.7046   -2.5851   -4.1200 H       1  UNL1        0.0278
     61 H           0.4423   -3.3485   -5.0845 H       1  UNL1        0.0278
     62 H           1.1286   -4.8588   -3.2548 H       1  UNL1        0.0266
     63 H           0.8153   -3.6015   -2.0584 H       1  UNL1        0.0266
     64 H          -1.2343   -4.9619   -3.8765 H       1  UNL1        0.0278
     65 H          -1.1025   -5.1083   -2.1247 H       1  UNL1        0.0278
     66 H          -2.9233   -3.5699   -2.8562 H       1  UNL1        0.0426
     67 H          -1.7502   -2.8337   -1.7616 H       1  UNL1        0.0426
@<TRIPOS>BOND
     1     1     2    1
     2     1    31    1
     3     1    32    1
     4     1    33    1
     5     2     3    1
     6     2     4    1
     7     2    34    1
     8     3    35    1
     9     3    36    1
    10     3    37    1
    11     5    14    1
    12     5    38    1
    13     6     7    1
    14     6    39    1
    15     6    40    1
    16     7     8    1
    17     7    41    1
    18     7    42    1
    19     8    13   ar
    20     8     9   ar
    21     9    10   ar
    22     9    43    1
    23    10    11   ar
    24    10    44    1
    25    11    12   ar
    26    11    45    1
    27    12    13   ar
    28    12    46    1
    29    13    47    1
    30    14    19   ar
    31    14    15   ar
    32    15    16   ar
    33    15    48    1
    34    16    17   ar
    35    16    49    1
    36    17    18   ar
    37    17    50    1
    38    18    19   ar
    39    18    51    1
    40    19    20    1
    41    20    21    1
    42    21    52    1
    43    21    53    1
    44    22    24    1
    45    22    54    1
    46    23    55    1
    47    24    25    1
    48    24    56    1
    49    24    57    1
    50    25    30    1
    51    25    26    1
    52    26    27    1
    53    26    58    1
    54    26    59    1
    55    27    28    1
    56    27    60    1
    57    27    61    1
    58    28    29    1
    59    28    62    1
    60    28    63    1
    61    29    30    1
    62    29    64    1
    63    29    65    1
    64    30    66    1
    65    30    67    1
    66     5     6    1
    67     5     4    1
    68    22    23    1
    69    22    21    1
