@<TRIPOS>MOLECULE
*****
 37 40 0 0 0
SMALL
GASTEIGER

@<TRIPOS>ATOM
      1 O           1.0592   -0.2708   -0.8056 O.2     1  UNL1       -0.2449
      2 C           2.0390   -0.1307   -0.0879 C.2     1  UNL1        0.3420
      3 O           2.4477    1.0828    0.3413 O.3     1  UNL1       -0.4770
      4 C           2.8820   -1.2574    0.3621 C.ar    1  UNL1        0.1220
      5 C           2.5745   -2.5042   -0.0270 C.ar    1  UNL1        0.0231
      6 N           3.3031   -3.6466    0.2517 N.ar    1  UNL1       -0.3426
      7 C           2.8422   -4.9613   -0.2464 C.3     1  UNL1        0.0347
      8 C           1.9307   -5.2044   -1.4212 C.3     1  UNL1       -0.0302
      9 C           3.3940   -5.4927   -1.5483 C.3     1  UNL1       -0.0302
     10 C           4.4968   -3.5380    1.0245 C.ar    1  UNL1        0.0537
     11 C           5.3296   -4.6391    1.2904 C.ar    1  UNL1       -0.0270
     12 C           6.5337   -4.5270    2.0233 C.ar    1  UNL1        0.0207
     13 C           7.4307   -5.6952    2.1777 C.ar    1  UNL1        0.0030
     14 C           7.5622   -6.6581    1.1618 C.ar    1  UNL1       -0.0511
     15 C           8.4041   -7.7570    1.3185 C.ar    1  UNL1       -0.0430
     16 C           9.1161   -7.8725    2.4978 C.ar    1  UNL1        0.0276
     17 N           9.0432   -6.9736    3.4980 N.ar    1  UNL1       -0.2627
     18 C           8.2101   -5.9169    3.3153 C.ar    1  UNL1        0.0353
     19 C           6.8390   -3.2620    2.5507 C.ar    1  UNL1        0.1319
     20 F           7.9525   -3.0743    3.2737 F       1  UNL1       -0.2048
     21 C           6.0316   -2.1524    2.3192 C.ar    1  UNL1       -0.0130
     22 C           4.8845   -2.2888    1.5355 C.ar    1  UNL1        0.0487
     23 C           4.0806   -1.0901    1.2101 C.ar    1  UNL1        0.2034
     24 O           4.4003    0.0261    1.6137 O.2     1  UNL1       -0.2863
     25 H           3.2551    1.0613    0.9114 H       1  UNL1        0.2954
     26 H           1.6897   -2.6752   -0.6346 H       1  UNL1        0.0819
     27 H           2.7099   -5.6689    0.5717 H       1  UNL1        0.0528
     28 H           1.2533   -6.0516   -1.3611 H       1  UNL1        0.0286
     29 H           1.5320   -4.3788   -1.9953 H       1  UNL1        0.0286
     30 H           3.9751   -4.8241   -2.1743 H       1  UNL1        0.0286
     31 H           3.7118   -6.5272   -1.5854 H       1  UNL1        0.0286
     32 H           5.0465   -5.6158    0.9062 H       1  UNL1        0.0645
     33 H           7.0209   -6.5598    0.2234 H       1  UNL1        0.0625
     34 H           8.5004   -8.5026    0.5362 H       1  UNL1        0.0633
     35 H           9.7933   -8.7046    2.6635 H       1  UNL1        0.0829
     36 H           8.1916   -5.2332    4.1603 H       1  UNL1        0.0836
     37 H           6.3215   -1.1897    2.7321 H       1  UNL1        0.0654
@<TRIPOS>BOND
     1     1     2    2
     2     2     3    1
     3     2     4    1
     4     3    25    1
     5     4    23   ar
     6     4     5   ar
     7     5     6   ar
     8     5    26    1
     9     6     7    1
    10     6    10   ar
    11     7     9    1
    12     7     8    1
    13     7    27    1
    14     8     9    1
    15     8    28    1
    16     8    29    1
    17     9    30    1
    18     9    31    1
    19    10    22   ar
    20    10    11   ar
    21    11    12   ar
    22    11    32    1
    23    12    13    1
    24    12    19   ar
    25    13    18   ar
    26    13    14   ar
    27    14    15   ar
    28    14    33    1
    29    15    16   ar
    30    15    34    1
    31    16    17   ar
    32    16    35    1
    33    17    18   ar
    34    18    36    1
    35    19    20    1
    36    19    21   ar
    37    21    22   ar
    38    21    37    1
    39    22    23   ar
    40    23    24    2
