@<TRIPOS>MOLECULE
*****
 55 59 0 0 0
SMALL
GASTEIGER

@<TRIPOS>ATOM
      1 C          -0.4637    5.8767   -4.4816 C.3     1  UNL1       -0.0036
      2 C          -1.2241    4.9379   -3.6365 C.ar    1  UNL1        0.1361
      3 C          -1.3749    4.7493   -2.2828 C.ar    1  UNL1        0.0221
      4 C          -2.3420    3.7164   -2.1650 C.ar    1  UNL1        0.1679
      5 N          -2.8587    3.2598   -0.9573 N.am    1  UNL1       -0.2664
      6 C          -3.8186    2.2654   -0.8622 C.2     1  UNL1        0.2398
      7 O          -4.3116    1.6496   -1.8064 O.2     1  UNL1       -0.2736
      8 C          -4.3717    2.0279    0.5138 C.3     1  UNL1        0.1472
      9 S          -3.1177    1.3975    1.5701 S.O2    1  UNL1        0.0075
     10 O          -2.5059    0.2271    0.9771 O.2     1  UNL1       -0.1688
     11 O          -2.3174    2.5047    2.0591 O.2     1  UNL1       -0.1688
     12 C          -3.9482    0.7787    2.9610 C.ar    1  UNL1        0.1166
     13 C          -3.9850   -0.5513    3.3364 C.ar    1  UNL1        0.0310
     14 N          -4.6981   -0.6560    4.5041 N.ar    1  UNL1       -0.3403
     15 C          -4.7738   -1.8752    5.3089 C.3     1  UNL1        0.0484
     16 C          -5.9679   -2.7310    4.9725 C.ar    1  UNL1       -0.0272
     17 C          -5.9044   -3.6713    3.9354 C.ar    1  UNL1       -0.0568
     18 C          -7.0017   -4.4856    3.6516 C.ar    1  UNL1       -0.0609
     19 C          -8.1753   -4.3726    4.3993 C.ar    1  UNL1       -0.0539
     20 C          -8.2635   -3.4443    5.4430 C.ar    1  UNL1       -0.0146
     21 C          -9.4604   -3.3375    6.2601 C.ar    1  UNL1        0.0193
     22 C          -9.6172   -2.9864    7.6226 C.ar    1  UNL1        0.0568
     23 N         -10.8930   -2.9900    8.0143 N.ar    1  UNL1       -0.1817
     24 N         -11.5607   -3.3464    6.9066 N.ar    1  UNL1       -0.2841
     25 C         -10.7485   -3.5668    5.8301 C.ar    1  UNL1        0.0300
     26 C          -7.1553   -2.6270    5.7160 C.ar    1  UNL1       -0.0491
     27 C          -5.1621    0.5928    4.8773 C.ar    1  UNL1        0.0568
     28 C          -5.9419    0.9968    5.9756 C.ar    1  UNL1       -0.0021
     29 C          -6.1992    2.3578    6.1345 C.ar    1  UNL1        0.1281
     30 F          -6.9237    2.7604    7.1878 F       1  UNL1       -0.2053
     31 C          -5.7224    3.2995    5.2410 C.ar    1  UNL1        0.0096
     32 C          -4.9801    2.8826    4.1376 C.ar    1  UNL1        0.1371
     33 F          -4.5554    3.8060    3.2637 F       1  UNL1       -0.2046
     34 C          -4.6791    1.5188    3.9346 C.ar    1  UNL1        0.0600
     35 N          -2.6998    3.2831   -3.3776 N.ar    1  UNL1       -0.0628
     36 O          -2.0058    4.0437   -4.2927 O.2     1  UNL1       -0.3581
     37 H          -0.0249    5.3647   -5.3441 H       1  UNL1        0.0309
     38 H          -1.1263    6.6641   -4.8564 H       1  UNL1        0.0309
     39 H           0.3455    6.3521   -3.9199 H       1  UNL1        0.0309
     40 H          -0.8863    5.3062   -1.4985 H       1  UNL1        0.0687
     41 H          -2.4856    3.6961   -0.1217 H       1  UNL1        0.1564
     42 H          -4.7813    2.9534    0.9229 H       1  UNL1        0.0601
     43 H          -5.1642    1.2753    0.4492 H       1  UNL1        0.0601
     44 H          -3.5262   -1.4200    2.8784 H       1  UNL1        0.0829
     45 H          -3.8433   -2.4349    5.1502 H       1  UNL1        0.0541
     46 H          -4.7799   -1.5862    6.3662 H       1  UNL1        0.0541
     47 H          -4.9957   -3.7895    3.3487 H       1  UNL1        0.0621
     48 H          -6.9395   -5.2212    2.8523 H       1  UNL1        0.0618
     49 H          -9.0075   -5.0335    4.1700 H       1  UNL1        0.0624
     50 H          -8.8531   -2.7340    8.3468 H       1  UNL1        0.0854
     51 H         -12.5710   -3.4189    6.9562 H       1  UNL1        0.1882
     52 H         -11.1635   -3.8467    4.8689 H       1  UNL1        0.0830
     53 H          -7.2153   -1.9038    6.5257 H       1  UNL1        0.0627
     54 H          -6.3354    0.2927    6.6998 H       1  UNL1        0.0667
     55 H          -5.9263    4.3524    5.3995 H       1  UNL1        0.0675
@<TRIPOS>BOND
     1     1     2    1
     2     1    37    1
     3     1    38    1
     4     1    39    1
     5     2    36   ar
     6     2     3   ar
     7     3     4   ar
     8     3    40    1
     9     4     5    1
    10     4    35   ar
    11     5     6   am
    12     5    41    1
    13     6     7    2
    14     6     8    1
    15     8     9    1
    16     8    42    1
    17     8    43    1
    18     9    10    2
    19     9    11    2
    20     9    12    1
    21    12    34   ar
    22    12    13   ar
    23    13    14   ar
    24    13    44    1
    25    14    15    1
    26    14    27   ar
    27    15    16    1
    28    15    45    1
    29    15    46    1
    30    16    26   ar
    31    16    17   ar
    32    17    18   ar
    33    17    47    1
    34    18    19   ar
    35    18    48    1
    36    19    20   ar
    37    19    49    1
    38    20    21    1
    39    20    26   ar
    40    21    25   ar
    41    21    22   ar
    42    22    23   ar
    43    22    50    1
    44    23    24   ar
    45    24    25   ar
    46    24    51    1
    47    25    52    1
    48    26    53    1
    49    27    34   ar
    50    27    28   ar
    51    28    29   ar
    52    28    54    1
    53    29    30    1
    54    29    31   ar
    55    31    32   ar
    56    31    55    1
    57    32    33    1
    58    32    34   ar
    59    35    36   ar
