@<TRIPOS>MOLECULE
*****
 24 25 0 0 0
SMALL
GASTEIGER

@<TRIPOS>ATOM
      1 C          -0.2356   -0.5597    1.9807 C.3     1  UNL1        0.0790
      2 O           0.7860   -0.8280    1.0214 O.2     1  UNL1       -0.4899
      3 C           1.0203   -2.1780    0.7621 C.2     1  UNL1        0.1894
      4 C           2.2589   -2.5951    0.4628 C.2     1  UNL1        0.1335
      5 CL          3.5943   -1.4880    0.4044 Cl      1  UNL1       -0.0756
      6 C           2.5791   -4.0102    0.1809 C.2     1  UNL1        0.2122
      7 O           3.7008   -4.3894   -0.1546 O.2     1  UNL1       -0.2854
      8 C           1.5080   -5.0107    0.3428 C.ar    1  UNL1        0.0790
      9 C           1.7956   -6.3768    0.2045 C.ar    1  UNL1        0.1286
     10 O           3.0428   -6.8623   -0.0885 O.3     1  UNL1       -0.5060
     11 C           0.8017   -7.3368    0.3677 C.ar    1  UNL1       -0.0160
     12 C          -0.4962   -6.9418    0.6759 C.ar    1  UNL1       -0.0160
     13 C          -0.7908   -5.5861    0.8150 C.ar    1  UNL1        0.1287
     14 O          -2.0680   -5.2357    1.1472 O.3     1  UNL1       -0.5060
     15 C           0.2059   -4.6063    0.6415 C.ar    1  UNL1        0.0811
     16 C          -0.1095   -3.1628    0.7489 C.2     1  UNL1        0.2332
     17 O          -1.2698   -2.7744    0.8047 O.2     1  UNL1       -0.2832
     18 H          -0.0770    0.4495    2.3718 H       1  UNL1        0.0660
     19 H          -0.1926   -1.2587    2.8236 H       1  UNL1        0.0660
     20 H          -1.2214   -0.5666    1.5082 H       1  UNL1        0.0660
     21 H           3.6588   -6.1044   -0.2100 H       1  UNL1        0.2922
     22 H           1.0406   -8.3920    0.2597 H       1  UNL1        0.0655
     23 H          -1.2629   -7.7010    0.8067 H       1  UNL1        0.0655
     24 H          -2.6466   -6.0137    1.1809 H       1  UNL1        0.2922
@<TRIPOS>BOND
     1     1     2    1
     2     1    18    1
     3     1    19    1
     4     1    20    1
     5     2     3    1
     6     3    16    1
     7     3     4    2
     8     4     5    1
     9     4     6    1
    10     6     7    2
    11     6     8    1
    12     8    15   ar
    13     8     9   ar
    14     9    10    1
    15     9    11   ar
    16    10    21    1
    17    11    12   ar
    18    11    22    1
    19    12    13   ar
    20    12    23    1
    21    13    14    1
    22    13    15   ar
    23    14    24    1
    24    15    16    1
    25    16    17    2
